protein_ligand_0
     RDKit          3D

 23 24  0  0  0  0  0  0  0  0999 V2000
    6.8092    8.5785   -6.0087 C   0  0  0  0  0  0  0  0  0  0  0  0
    7.1477    9.0620   -4.6288 C   0  0  0  0  0  0  0  0  0  0  0  0
    7.4865   10.5589   -4.7946 C   0  0  0  0  0  0  0  0  0  0  0  0
    8.3656    8.4060   -4.1247 C   0  0  0  0  0  0  0  0  0  0  0  0
    5.9563    9.0531   -3.6888 C   0  0  1  0  0  0  0  0  0  0  0  0
    5.5882    7.6230   -3.4912 N   0  0  0  0  0  0  0  0  0  0  0  0
    4.2336    7.2505   -3.6149 C   0  0  0  0  0  0  0  0  0  0  0  0
    3.3829    8.0942   -3.9520 O   0  0  0  0  0  0  0  0  0  0  0  0
    3.8842    5.8271   -3.3272 C   0  0  0  0  0  0  0  0  0  0  0  0
    4.2971    5.4403   -2.0777 F   0  0  0  0  0  0  0  0  0  0  0  0
    2.4933    5.6874   -3.3747 F   0  0  0  0  0  0  0  0  0  0  0  0
    4.4850    5.0291   -4.2921 F   0  0  0  0  0  0  0  0  0  0  0  0
    6.1699    9.7034   -2.4111 C   0  0  0  0  0  0  0  0  0  0  0  0
    6.7833    8.9697   -1.5283 O   0  0  0  0  0  0  0  0  0  0  0  0
    5.8421   10.9628   -1.9551 N   0  0  0  0  0  0  0  0  0  0  0  0
    5.1524   12.0179   -2.7421 C   0  0  0  0  0  0  0  0  0  0  0  0
    4.2572   12.6724   -1.6801 C   0  0  0  0  0  0  0  0  0  0  0  0
    5.0898   12.5572   -0.4557 C   0  0  0  0  0  0  0  0  0  0  0  0
    5.0628   13.2538    0.6847 N   0  0  0  0  0  0  0  0  0  0  0  0
    5.9307   13.0243    1.6928 C   0  0  0  0  0  0  0  0  0  0  0  0
    6.8771   12.0395    1.5435 C   0  0  0  0  0  0  0  0  0  0  0  0
    6.9040   11.3224    0.3695 C   0  0  0  0  0  0  0  0  0  0  0  0
    6.0240   11.5414   -0.6737 C   0  0  0  0  0  0  0  0  0  0  0  0
  1  2  1  0
  2  3  1  0
  2  4  1  0
  2  5  1  0
  5  6  1  1
  6  7  1  0
  7  8  2  0
  7  9  1  0
  9 10  1  0
  9 11  1  0
  9 12  1  0
  5 13  1  0
 13 14  2  0
 13 15  1  0
 15 16  1  0
 16 17  1  0
 17 18  1  0
 18 19  2  0
 19 20  1  0
 20 21  2  0
 21 22  1  0
 22 23  2  0
 23 15  1  0
 23 18  1  0
M  END
$$$$
