protein_ligand_0
     RDKit          3D

 22 23  0  0  0  0  0  0  0  0999 V2000
    2.8559   10.1815   -6.2376 C   0  0  0  0  0  0  0  0  0  0  0  0
    4.1952   10.4448   -5.7041 C   0  0  0  0  0  0  0  0  0  0  0  0
    5.2190   10.2974   -6.8266 C   0  0  0  0  0  0  0  0  0  0  0  0
    4.6656    9.7968   -4.5153 C   0  0  0  0  0  0  0  0  0  0  0  0
    4.4565    8.4434   -4.4139 N   0  0  0  0  0  0  0  0  0  0  0  0
    4.8013    7.7168   -3.3555 C   0  0  0  0  0  0  0  0  0  0  0  0
    4.5358    6.2992   -3.3517 N   0  0  0  0  0  0  0  0  0  0  0  0
    3.7323    5.7134   -4.3481 C   0  0  0  0  0  0  0  0  0  0  0  0
    3.4469    6.3786   -5.3706 O   0  0  0  0  0  0  0  0  0  0  0  0
    3.2009    4.3299   -4.2445 C   0  0  0  0  0  0  0  0  0  0  0  0
    4.1566    3.4001   -4.5151 F   0  0  0  0  0  0  0  0  0  0  0  0
    2.6193    4.0930   -3.0150 F   0  0  0  0  0  0  0  0  0  0  0  0
    2.2017    4.1833   -5.2061 F   0  0  0  0  0  0  0  0  0  0  0  0
    5.3860    8.2772   -2.3034 N   0  0  0  0  0  0  0  0  0  0  0  0
    5.6349    9.5874   -2.3018 C   0  0  0  0  0  0  0  0  0  0  0  0
    5.2674   10.3537   -3.4291 C   0  0  0  0  0  0  0  0  0  0  0  0
    5.6046   11.7397   -3.4144 C   0  0  0  0  0  0  0  0  0  0  0  0
    6.9054   12.1301   -3.5268 C   0  0  0  0  0  0  0  0  0  0  0  0
    7.2703   13.4537   -3.5694 C   0  0  0  0  0  0  0  0  0  0  0  0
    6.2671   14.4222   -3.4944 C   0  0  0  0  0  0  0  0  0  0  0  0
    4.9462   14.0574   -3.3809 C   0  0  0  0  0  0  0  0  0  0  0  0
    4.6423   12.7057   -3.3434 C   0  0  0  0  0  0  0  0  0  0  0  0
  1  2  1  0
  2  3  1  0
  2  4  1  0
  4  5  2  0
  5  6  1  0
  6  7  1  0
  7  8  1  0
  8  9  2  0
  8 10  1  0
 10 11  1  0
 10 12  1  0
 10 13  1  0
  6 14  2  0
 14 15  1  0
 15 16  2  0
 16 17  1  0
 17 18  2  0
 18 19  1  0
 19 20  2  0
 20 21  1  0
 21 22  2  0
 16  4  1  0
 22 17  1  0
M  END
$$$$
