protein_ligand_0
     RDKit          3D

 23 24  0  0  0  0  0  0  0  0999 V2000
    7.3784   11.7486   -4.6837 C   0  0  0  0  0  0  0  0  0  0  0  0
    7.6078   10.3388   -4.2231 C   0  0  0  0  0  0  0  0  0  0  0  0
    8.7560   10.4290   -3.1953 C   0  0  0  0  0  0  0  0  0  0  0  0
    8.0944    9.4962   -5.3281 C   0  0  0  0  0  0  0  0  0  0  0  0
    6.4424    9.7776   -3.4293 C   0  0  1  0  0  0  0  0  0  0  0  0
    6.0089   10.8580   -2.4995 N   0  0  0  0  0  0  0  0  0  0  0  0
    6.0996   10.6310   -1.1105 C   0  0  0  0  0  0  0  0  0  0  0  0
    6.5656    9.5591   -0.6828 O   0  0  0  0  0  0  0  0  0  0  0  0
    5.6192   11.7171   -0.2047 C   0  0  0  0  0  0  0  0  0  0  0  0
    5.4929   11.2856    1.0911 F   0  0  0  0  0  0  0  0  0  0  0  0
    6.5545   12.7570   -0.2146 F   0  0  0  0  0  0  0  0  0  0  0  0
    4.3917   12.1642   -0.6762 F   0  0  0  0  0  0  0  0  0  0  0  0
    5.3219    9.3090   -4.2204 C   0  0  0  0  0  0  0  0  0  0  0  0
    4.6536   10.2511   -4.8203 O   0  0  0  0  0  0  0  0  0  0  0  0
    4.8301    8.0427   -4.4570 N   0  0  0  0  0  0  0  0  0  0  0  0
    5.2170    6.8106   -3.7217 C   0  0  0  0  0  0  0  0  0  0  0  0
    3.8849    6.0501   -3.6530 C   0  0  0  0  0  0  0  0  0  0  0  0
    3.2425    6.4286   -4.9374 C   0  0  0  0  0  0  0  0  0  0  0  0
    2.2825    5.8228   -5.6430 N   0  0  0  0  0  0  0  0  0  0  0  0
    1.8383    6.3056   -6.8228 C   0  0  0  0  0  0  0  0  0  0  0  0
    2.3918    7.4614   -7.3184 C   0  0  0  0  0  0  0  0  0  0  0  0
    3.3797    8.0847   -6.5914 C   0  0  0  0  0  0  0  0  0  0  0  0
    3.8475    7.6072   -5.3815 C   0  0  0  0  0  0  0  0  0  0  0  0
  1  2  1  0
  2  3  1  0
  2  4  1  0
  2  5  1  0
  5  6  1  1
  6  7  1  0
  7  8  2  0
  7  9  1  0
  9 10  1  0
  9 11  1  0
  9 12  1  0
  5 13  1  0
 13 14  2  0
 13 15  1  0
 15 16  1  0
 16 17  1  0
 17 18  1  0
 18 19  2  0
 19 20  1  0
 20 21  2  0
 21 22  1  0
 22 23  2  0
 23 15  1  0
 23 18  1  0
M  END
$$$$
