protein_ligand_0
     RDKit          3D

 22 23  0  0  0  0  0  0  0  0999 V2000
    6.3809   10.8834   -5.1493 C   0  0  0  0  0  0  0  0  0  0  0  0
    6.4515   10.8538   -3.6857 C   0  0  0  0  0  0  0  0  0  0  0  0
    7.7558   10.1844   -3.2609 C   0  0  0  0  0  0  0  0  0  0  0  0
    5.3612   10.3620   -2.8958 C   0  0  0  0  0  0  0  0  0  0  0  0
    4.8051    9.1637   -3.2710 N   0  0  0  0  0  0  0  0  0  0  0  0
    3.7656    8.6046   -2.6595 C   0  0  0  0  0  0  0  0  0  0  0  0
    3.2589    7.3409   -3.1352 N   0  0  0  0  0  0  0  0  0  0  0  0
    3.9786    6.5848   -4.0796 C   0  0  0  0  0  0  0  0  0  0  0  0
    4.9515    7.1107   -4.6682 O   0  0  0  0  0  0  0  0  0  0  0  0
    3.6365    5.1787   -4.4156 C   0  0  0  0  0  0  0  0  0  0  0  0
    4.7483    4.4304   -4.6500 F   0  0  0  0  0  0  0  0  0  0  0  0
    2.8474    4.5952   -3.4446 F   0  0  0  0  0  0  0  0  0  0  0  0
    2.8934    5.1905   -5.5956 F   0  0  0  0  0  0  0  0  0  0  0  0
    3.1883    9.1925   -1.6184 N   0  0  0  0  0  0  0  0  0  0  0  0
    3.6533   10.3606   -1.1735 C   0  0  0  0  0  0  0  0  0  0  0  0
    4.7583   10.9491   -1.8263 C   0  0  0  0  0  0  0  0  0  0  0  0
    5.2637   12.1678   -1.2839 C   0  0  0  0  0  0  0  0  0  0  0  0
    5.0670   13.3448   -1.9420 C   0  0  0  0  0  0  0  0  0  0  0  0
    5.4906   14.5475   -1.4312 C   0  0  0  0  0  0  0  0  0  0  0  0
    6.1430   14.5522   -0.1964 C   0  0  0  0  0  0  0  0  0  0  0  0
    6.3549   13.3797    0.4900 C   0  0  0  0  0  0  0  0  0  0  0  0
    5.9035   12.1989   -0.0781 C   0  0  0  0  0  0  0  0  0  0  0  0
  1  2  1  0
  2  3  1  0
  2  4  1  0
  4  5  2  0
  5  6  1  0
  6  7  1  0
  7  8  1  0
  8  9  2  0
  8 10  1  0
 10 11  1  0
 10 12  1  0
 10 13  1  0
  6 14  2  0
 14 15  1  0
 15 16  2  0
 16 17  1  0
 17 18  2  0
 18 19  1  0
 19 20  2  0
 20 21  1  0
 21 22  2  0
 16  4  1  0
 22 17  1  0
M  END
$$$$
