protein_ligand_0
     RDKit          3D

 23 24  0  0  0  0  0  0  0  0999 V2000
    5.4832   12.0488   -3.5722 C   0  0  0  0  0  0  0  0  0  0  0  0
    6.8182   11.6218   -3.0358 C   0  0  0  0  0  0  0  0  0  0  0  0
    6.8061   12.0275   -1.5464 C   0  0  0  0  0  0  0  0  0  0  0  0
    7.9084   12.3798   -3.6718 C   0  0  0  0  0  0  0  0  0  0  0  0
    6.9912   10.1143   -3.0084 C   0  0  1  0  0  0  0  0  0  0  0  0
    8.3072    9.8547   -2.3598 N   0  0  0  0  0  0  0  0  0  0  0  0
    9.1166    8.8163   -2.8655 C   0  0  0  0  0  0  0  0  0  0  0  0
    8.7991    8.2345   -3.9190 O   0  0  0  0  0  0  0  0  0  0  0  0
   10.3426    8.4619   -2.0894 C   0  0  0  0  0  0  0  0  0  0  0  0
   10.5731    9.3434   -1.0642 F   0  0  0  0  0  0  0  0  0  0  0  0
   10.1664    7.1942   -1.5252 F   0  0  0  0  0  0  0  0  0  0  0  0
   11.4229    8.4584   -2.9623 F   0  0  0  0  0  0  0  0  0  0  0  0
    5.9389    9.3817   -2.3324 C   0  0  0  0  0  0  0  0  0  0  0  0
    5.9024    9.5566   -1.0432 O   0  0  0  0  0  0  0  0  0  0  0  0
    4.9634    8.5293   -2.8049 N   0  0  0  0  0  0  0  0  0  0  0  0
    3.8573    7.9467   -2.0014 C   0  0  0  0  0  0  0  0  0  0  0  0
    2.6969    7.9527   -3.0069 C   0  0  0  0  0  0  0  0  0  0  0  0
    3.3963    7.7003   -4.2926 C   0  0  0  0  0  0  0  0  0  0  0  0
    2.9405    7.2146   -5.4513 N   0  0  0  0  0  0  0  0  0  0  0  0
    3.7422    7.0232   -6.5204 C   0  0  0  0  0  0  0  0  0  0  0  0
    5.0755    7.3383   -6.4159 C   0  0  0  0  0  0  0  0  0  0  0  0
    5.5440    7.8387   -5.2229 C   0  0  0  0  0  0  0  0  0  0  0  0
    4.7395    8.0427   -4.1175 C   0  0  0  0  0  0  0  0  0  0  0  0
  1  2  1  0
  2  3  1  0
  2  4  1  0
  2  5  1  0
  5  6  1  1
  6  7  1  0
  7  8  2  0
  7  9  1  0
  9 10  1  0
  9 11  1  0
  9 12  1  0
  5 13  1  0
 13 14  2  0
 13 15  1  0
 15 16  1  0
 16 17  1  0
 17 18  1  0
 18 19  2  0
 19 20  1  0
 20 21  2  0
 21 22  1  0
 22 23  2  0
 23 15  1  0
 23 18  1  0
M  END
$$$$
