protein_ligand_0
     RDKit          3D

 22 23  0  0  0  0  0  0  0  0999 V2000
    4.9499   12.3292   -4.9721 C   0  0  0  0  0  0  0  0  0  0  0  0
    5.6481   11.8839   -3.7629 C   0  0  0  0  0  0  0  0  0  0  0  0
    6.9685   11.2289   -4.1598 C   0  0  0  0  0  0  0  0  0  0  0  0
    4.9844   11.0977   -2.7649 C   0  0  0  0  0  0  0  0  0  0  0  0
    4.5386    9.8542   -3.1399 N   0  0  0  0  0  0  0  0  0  0  0  0
    3.8729    9.0312   -2.3357 C   0  0  0  0  0  0  0  0  0  0  0  0
    3.4496    7.7446   -2.8309 N   0  0  0  0  0  0  0  0  0  0  0  0
    3.4525    7.4664   -4.2108 C   0  0  0  0  0  0  0  0  0  0  0  0
    4.2010    8.1299   -4.9651 O   0  0  0  0  0  0  0  0  0  0  0  0
    2.6017    6.4131   -4.8222 C   0  0  0  0  0  0  0  0  0  0  0  0
    2.9025    6.2194   -6.1349 F   0  0  0  0  0  0  0  0  0  0  0  0
    2.6709    5.2253   -4.1220 F   0  0  0  0  0  0  0  0  0  0  0  0
    1.2776    6.8469   -4.7643 F   0  0  0  0  0  0  0  0  0  0  0  0
    3.5928    9.3769   -1.0848 N   0  0  0  0  0  0  0  0  0  0  0  0
    3.9827   10.5651   -0.6211 C   0  0  0  0  0  0  0  0  0  0  0  0
    4.6904   11.4344   -1.4795 C   0  0  0  0  0  0  0  0  0  0  0  0
    5.1424   12.6702   -0.9289 C   0  0  0  0  0  0  0  0  0  0  0  0
    4.5413   13.8402   -1.2851 C   0  0  0  0  0  0  0  0  0  0  0  0
    4.9094   15.0465   -0.7408 C   0  0  0  0  0  0  0  0  0  0  0  0
    5.9344   15.0624    0.2076 C   0  0  0  0  0  0  0  0  0  0  0  0
    6.5585   13.8971    0.5862 C   0  0  0  0  0  0  0  0  0  0  0  0
    6.1414   12.7122    0.0009 C   0  0  0  0  0  0  0  0  0  0  0  0
  1  2  1  0
  2  3  1  0
  2  4  1  0
  4  5  2  0
  5  6  1  0
  6  7  1  0
  7  8  1  0
  8  9  2  0
  8 10  1  0
 10 11  1  0
 10 12  1  0
 10 13  1  0
  6 14  2  0
 14 15  1  0
 15 16  2  0
 16 17  1  0
 17 18  2  0
 18 19  1  0
 19 20  2  0
 20 21  1  0
 21 22  2  0
 16  4  1  0
 22 17  1  0
M  END
$$$$
