protein_ligand_0
     RDKit          3D

 22 23  0  0  0  0  0  0  0  0999 V2000
    5.7638   10.8651   -0.1382 C   0  0  0  0  0  0  0  0  0  0  0  0
    5.6906   11.4734   -1.4696 C   0  0  0  0  0  0  0  0  0  0  0  0
    4.3296   12.1430   -1.6399 C   0  0  0  0  0  0  0  0  0  0  0  0
    6.0298   10.7319   -2.6484 C   0  0  0  0  0  0  0  0  0  0  0  0
    5.3382    9.5680   -2.8780 N   0  0  0  0  0  0  0  0  0  0  0  0
    5.5703    8.7577   -3.9060 C   0  0  0  0  0  0  0  0  0  0  0  0
    4.7843    7.5576   -4.0544 N   0  0  0  0  0  0  0  0  0  0  0  0
    3.7202    7.2793   -3.1758 C   0  0  0  0  0  0  0  0  0  0  0  0
    3.5375    8.0231   -2.1844 O   0  0  0  0  0  0  0  0  0  0  0  0
    2.7940    6.1340   -3.3695 C   0  0  0  0  0  0  0  0  0  0  0  0
    1.5310    6.5491   -3.6587 F   0  0  0  0  0  0  0  0  0  0  0  0
    3.2548    5.2566   -4.3306 F   0  0  0  0  0  0  0  0  0  0  0  0
    2.7293    5.4294   -2.1679 F   0  0  0  0  0  0  0  0  0  0  0  0
    6.5143    9.0375   -4.7967 N   0  0  0  0  0  0  0  0  0  0  0  0
    7.2435   10.1464   -4.6651 C   0  0  0  0  0  0  0  0  0  0  0  0
    6.9917   11.0036   -3.5719 C   0  0  0  0  0  0  0  0  0  0  0  0
    7.7510   12.2091   -3.4993 C   0  0  0  0  0  0  0  0  0  0  0  0
    8.9756   12.2130   -2.9015 C   0  0  0  0  0  0  0  0  0  0  0  0
    9.7627   13.3378   -2.8550 C   0  0  0  0  0  0  0  0  0  0  0  0
    9.2820   14.5099   -3.4427 C   0  0  0  0  0  0  0  0  0  0  0  0
    8.0501   14.5350   -4.0531 C   0  0  0  0  0  0  0  0  0  0  0  0
    7.3037   13.3674   -4.0672 C   0  0  0  0  0  0  0  0  0  0  0  0
  1  2  1  0
  2  3  1  0
  2  4  1  0
  4  5  2  0
  5  6  1  0
  6  7  1  0
  7  8  1  0
  8  9  2  0
  8 10  1  0
 10 11  1  0
 10 12  1  0
 10 13  1  0
  6 14  2  0
 14 15  1  0
 15 16  2  0
 16 17  1  0
 17 18  2  0
 18 19  1  0
 19 20  2  0
 20 21  1  0
 21 22  2  0
 16  4  1  0
 22 17  1  0
M  END
$$$$
