protein_ligand_4
     RDKit          3D

 23 24  0  0  0  0  0  0  0  0999 V2000
    5.5236    1.6627   -6.1303 C   0  0  0  0  0  0  0  0  0  0  0  0
    5.5242    3.1455   -6.4601 C   0  0  0  0  0  0  0  0  0  0  0  0
    6.9507    3.5468   -6.7872 C   0  0  0  0  0  0  0  0  0  0  0  0
    5.1292    3.8750   -5.2183 C   0  0  0  0  0  0  0  0  0  0  0  0
    5.0220    3.2264   -4.1648 O   0  0  0  0  0  0  0  0  0  0  0  0
    4.9027    5.2018   -5.2754 O   0  0  0  0  0  0  0  0  0  0  0  0
    3.9709    5.9399   -4.6027 C   0  0  0  0  0  0  0  0  0  0  0  0
    4.4758    7.1269   -3.8146 C   0  0  2  0  0  0  0  0  0  0  0  0
    4.8140    6.7309   -2.5314 O   0  0  0  0  0  0  0  0  0  0  0  0
    3.4657    8.2305   -3.8817 C   0  0  0  0  0  0  0  0  0  0  0  0
    3.8290    9.4158   -3.1794 N   0  0  0  0  0  0  0  0  0  0  0  0
    3.5082    9.6262   -1.8727 C   0  0  0  0  0  0  0  0  0  0  0  0
    3.8777   10.7710   -1.2018 C   0  0  0  0  0  0  0  0  0  0  0  0
    4.5992   11.7567   -1.8528 C   0  0  0  0  0  0  0  0  0  0  0  0
    5.0059   12.9795   -1.1734 C   0  0  0  0  0  0  0  0  0  0  0  0
    5.2895   14.1476   -1.8555 C   0  0  0  0  0  0  0  0  0  0  0  0
    5.6761   15.3047   -1.1885 C   0  0  0  0  0  0  0  0  0  0  0  0
    5.7915   15.3293    0.1857 C   0  0  0  0  0  0  0  0  0  0  0  0
    5.5089   14.1644    0.8673 C   0  0  0  0  0  0  0  0  0  0  0  0
    5.1253   13.0179    0.2003 C   0  0  0  0  0  0  0  0  0  0  0  0
    4.8993   11.5017   -3.1691 C   0  0  0  0  0  0  0  0  0  0  0  0
    4.5361   10.3687   -3.8418 C   0  0  0  0  0  0  0  0  0  0  0  0
    4.8408   10.1892   -5.0645 O   0  0  0  0  0  0  0  0  0  0  0  0
  1  2  1  0
  2  3  1  0
  2  4  1  0
  4  5  2  0
  4  6  1  0
  6  7  1  0
  7  8  1  0
  8  9  1  1
  8 10  1  0
 10 11  1  0
 11 12  1  0
 12 13  2  0
 13 14  1  0
 14 15  1  0
 15 16  2  0
 16 17  1  0
 17 18  2  0
 18 19  1  0
 19 20  2  0
 14 21  2  0
 21 22  1  0
 22 23  2  0
 22 11  1  0
 20 15  1  0
M  END
$$$$
