protein_ligand_4
     RDKit          3D

 23 24  0  0  0  0  0  0  0  0999 V2000
    2.4870    8.3295   -6.4759 C   0  0  0  0  0  0  0  0  0  0  0  0
    2.6178    6.8514   -6.8011 C   0  0  0  0  0  0  0  0  0  0  0  0
    1.2190    6.2674   -6.8731 C   0  0  0  0  0  0  0  0  0  0  0  0
    3.3124    6.2046   -5.6481 C   0  0  0  0  0  0  0  0  0  0  0  0
    2.6762    5.3887   -4.9616 O   0  0  0  0  0  0  0  0  0  0  0  0
    4.5959    6.5211   -5.3883 O   0  0  0  0  0  0  0  0  0  0  0  0
    5.2255    6.6159   -4.1799 C   0  0  0  0  0  0  0  0  0  0  0  0
    5.5928    8.0034   -3.7056 C   0  0  2  0  0  0  0  0  0  0  0  0
    6.8018    7.9660   -3.0314 O   0  0  0  0  0  0  0  0  0  0  0  0
    4.4548    8.5730   -2.9161 C   0  0  0  0  0  0  0  0  0  0  0  0
    4.6615    9.9016   -2.4445 N   0  0  0  0  0  0  0  0  0  0  0  0
    5.1489   10.1757   -1.2027 C   0  0  0  0  0  0  0  0  0  0  0  0
    5.3569   11.4647   -0.7644 C   0  0  0  0  0  0  0  0  0  0  0  0
    5.0694   12.5361   -1.5924 C   0  0  0  0  0  0  0  0  0  0  0  0
    5.2773   13.9117   -1.1607 C   0  0  0  0  0  0  0  0  0  0  0  0
    5.5903   14.9271   -2.0446 C   0  0  0  0  0  0  0  0  0  0  0  0
    5.7848   16.2343   -1.6126 C   0  0  0  0  0  0  0  0  0  0  0  0
    5.6720   16.5675   -0.2790 C   0  0  0  0  0  0  0  0  0  0  0  0
    5.3598   15.5552    0.6038 C   0  0  0  0  0  0  0  0  0  0  0  0
    5.1676   14.2586    0.1699 C   0  0  0  0  0  0  0  0  0  0  0  0
    4.5796   12.2119   -2.8345 C   0  0  0  0  0  0  0  0  0  0  0  0
    4.3703   10.9356   -3.2767 C   0  0  0  0  0  0  0  0  0  0  0  0
    3.9104   10.6967   -4.4392 O   0  0  0  0  0  0  0  0  0  0  0  0
  1  2  1  0
  2  3  1  0
  2  4  1  0
  4  5  2  0
  4  6  1  0
  6  7  1  0
  7  8  1  0
  8  9  1  1
  8 10  1  0
 10 11  1  0
 11 12  1  0
 12 13  2  0
 13 14  1  0
 14 15  1  0
 15 16  2  0
 16 17  1  0
 17 18  2  0
 18 19  1  0
 19 20  2  0
 14 21  2  0
 21 22  1  0
 22 23  2  0
 22 11  1  0
 20 15  1  0
M  END
$$$$
