protein_ligand_3
     RDKit          3D

 22 23  0  0  0  0  0  0  0  0999 V2000
    7.5778   10.2986   -5.5018 C   0  0  0  0  0  0  0  0  0  0  0  0
    7.2239    9.0326   -4.7846 C   0  0  0  0  0  0  0  0  0  0  0  0
    8.2413    8.6352   -3.7809 C   0  0  0  0  0  0  0  0  0  0  0  0
    7.0559    7.9062   -5.8342 C   0  0  0  0  0  0  0  0  0  0  0  0
    5.8341    9.1107   -4.1367 C   0  0  2  0  0  0  0  0  0  0  0  0
    6.0597    9.7413   -2.8051 N   0  0  0  0  0  0  0  0  0  0  0  0
    5.0343   10.5408   -2.2558 C   0  0  0  0  0  0  0  0  0  0  0  0
    3.9831   10.7047   -2.9470 O   0  0  0  0  0  0  0  0  0  0  0  0
    5.1158   11.1885   -0.9385 C   0  0  0  0  0  0  0  0  0  0  0  0
    6.3248   11.8145   -0.7903 F   0  0  0  0  0  0  0  0  0  0  0  0
    5.0155   10.1884    0.0282 F   0  0  0  0  0  0  0  0  0  0  0  0
    4.0463   12.0814   -0.8107 F   0  0  0  0  0  0  0  0  0  0  0  0
    5.2075    7.8005   -3.9383 C   0  0  0  0  0  0  0  0  0  0  0  0
    5.7469    7.0624   -3.0313 O   0  0  0  0  0  0  0  0  0  0  0  0
    4.1054    7.2557   -4.5964 N   0  0  0  0  0  0  0  0  0  0  0  0
    3.6535    5.8827   -4.5786 C   0  0  0  0  0  0  0  0  0  0  0  0
    3.0758    5.6409   -5.9868 C   0  0  0  0  0  0  0  0  0  0  0  0
    1.6992    6.3345   -6.0583 C   0  0  0  0  0  0  0  0  0  0  0  0
    1.8343    7.6293   -5.2628 C   0  0  0  0  0  0  0  0  0  0  0  0
    3.2531    8.1335   -5.4434 C   0  0  0  0  0  0  0  0  0  0  0  0
    3.7309    7.8496   -6.8697 C   0  0  0  0  0  0  0  0  0  0  0  0
    3.9551    6.3531   -6.9875 C   0  0  0  0  0  0  0  0  0  0  0  0
  1  2  1  0
  2  3  1  0
  2  4  1  0
  2  5  1  0
  5  6  1  1
  6  7  1  0
  7  8  2  0
  7  9  1  0
  9 10  1  0
  9 11  1  0
  9 12  1  0
  5 13  1  0
 13 14  2  0
 13 15  1  0
 15 16  1  0
 16 17  1  0
 17 18  1  0
 18 19  1  0
 19 20  1  0
 20 21  1  0
 21 22  1  0
 20 15  1  0
 22 17  1  0
M  END
$$$$
