protein_ligand_3
     RDKit          3D

 24 25  0  0  0  0  0  0  0  0999 V2000
    8.0692   10.9766   -4.5978 C   0  0  0  0  0  0  0  0  0  0  0  0
    7.4703   11.6602   -3.4205 C   0  0  0  0  0  0  0  0  0  0  0  0
    8.5998   12.0290   -2.4836 C   0  0  0  0  0  0  0  0  0  0  0  0
    6.8110   12.9975   -3.7940 C   0  0  0  0  0  0  0  0  0  0  0  0
    6.4319   10.8725   -2.6752 C   0  0  1  0  0  0  0  0  0  0  0  0
    5.8394   11.4698   -1.5750 N   0  0  0  0  0  0  0  0  0  0  0  0
    6.2103   11.2343   -0.2211 C   0  0  0  0  0  0  0  0  0  0  0  0
    7.1855   10.4407   -0.1183 O   0  0  0  0  0  0  0  0  0  0  0  0
    5.5606   11.8318    0.9642 C   0  0  0  0  0  0  0  0  0  0  0  0
    5.6103   13.2328    0.9070 F   0  0  0  0  0  0  0  0  0  0  0  0
    4.2403   11.4658    1.0033 F   0  0  0  0  0  0  0  0  0  0  0  0
    6.2192   11.3915    2.1006 F   0  0  0  0  0  0  0  0  0  0  0  0
    5.4853   10.1687   -3.5604 C   0  0  0  0  0  0  0  0  0  0  0  0
    4.3486   10.7449   -3.8182 O   0  0  0  0  0  0  0  0  0  0  0  0
    5.6102    8.9248   -4.2040 N   0  0  0  0  0  0  0  0  0  0  0  0
    6.7784    8.0801   -3.9788 C   0  0  0  0  0  0  0  0  0  0  0  0
    6.5939    6.6639   -4.4620 C   0  0  0  0  0  0  0  0  0  0  0  0
    5.2346    6.2403   -4.4566 O   0  0  0  0  0  0  0  0  0  0  0  0
    4.3548    7.0305   -5.1883 C   0  0  0  0  0  0  0  0  0  0  0  0
    3.3515    6.5394   -5.9939 C   0  0  0  0  0  0  0  0  0  0  0  0
    2.5425    7.4153   -6.6734 C   0  0  0  0  0  0  0  0  0  0  0  0
    2.7535    8.7666   -6.5342 C   0  0  0  0  0  0  0  0  0  0  0  0
    3.7669    9.2555   -5.7194 C   0  0  0  0  0  0  0  0  0  0  0  0
    4.5752    8.4063   -5.0380 C   0  0  0  0  0  0  0  0  0  0  0  0
  1  2  1  0
  2  3  1  0
  2  4  1  0
  2  5  1  0
  5  6  1  1
  6  7  1  0
  7  8  2  0
  7  9  1  0
  9 10  1  0
  9 11  1  0
  9 12  1  0
  5 13  1  0
 13 14  2  0
 13 15  1  0
 15 16  1  0
 16 17  1  0
 17 18  1  0
 18 19  1  0
 19 20  2  0
 20 21  1  0
 21 22  2  0
 22 23  1  0
 23 24  2  0
 24 15  1  0
 24 19  1  0
M  END
$$$$
