protein_ligand_3
     RDKit          3D

 24 25  0  0  0  0  0  0  0  0999 V2000
    8.4167    8.6392   -5.0475 C   0  0  0  0  0  0  0  0  0  0  0  0
    7.0725    9.2317   -5.2799 C   0  0  0  0  0  0  0  0  0  0  0  0
    7.2540   10.7251   -5.4424 C   0  0  0  0  0  0  0  0  0  0  0  0
    6.4470    8.7612   -6.6027 C   0  0  0  0  0  0  0  0  0  0  0  0
    6.0530    8.9596   -4.2117 C   0  0  1  0  0  0  0  0  0  0  0  0
    5.5361    7.6773   -4.1286 N   0  0  0  0  0  0  0  0  0  0  0  0
    4.1618    7.3636   -3.9310 C   0  0  0  0  0  0  0  0  0  0  0  0
    3.4203    8.3825   -3.9901 O   0  0  0  0  0  0  0  0  0  0  0  0
    3.6155    6.0125   -3.6857 C   0  0  0  0  0  0  0  0  0  0  0  0
    2.2439    6.0742   -3.3967 F   0  0  0  0  0  0  0  0  0  0  0  0
    3.7677    5.2400   -4.8076 F   0  0  0  0  0  0  0  0  0  0  0  0
    4.2891    5.4491   -2.6144 F   0  0  0  0  0  0  0  0  0  0  0  0
    6.4000    9.5542   -2.9075 C   0  0  0  0  0  0  0  0  0  0  0  0
    7.0778    8.8287   -2.0680 O   0  0  0  0  0  0  0  0  0  0  0  0
    6.1110   10.8315   -2.3956 N   0  0  0  0  0  0  0  0  0  0  0  0
    5.1104   11.6828   -3.0303 C   0  0  0  0  0  0  0  0  0  0  0  0
    4.6854   12.8472   -2.1721 C   0  0  0  0  0  0  0  0  0  0  0  0
    4.8128   12.5938   -0.7768 O   0  0  0  0  0  0  0  0  0  0  0  0
    6.0815   12.2212   -0.3460 C   0  0  0  0  0  0  0  0  0  0  0  0
    6.6796   12.6808    0.8063 C   0  0  0  0  0  0  0  0  0  0  0  0
    7.9399   12.2459    1.1317 C   0  0  0  0  0  0  0  0  0  0  0  0
    8.5781   11.3593    0.2971 C   0  0  0  0  0  0  0  0  0  0  0  0
    7.9688   10.8990   -0.8635 C   0  0  0  0  0  0  0  0  0  0  0  0
    6.7232   11.3153   -1.2011 C   0  0  0  0  0  0  0  0  0  0  0  0
  1  2  1  0
  2  3  1  0
  2  4  1  0
  2  5  1  0
  5  6  1  1
  6  7  1  0
  7  8  2  0
  7  9  1  0
  9 10  1  0
  9 11  1  0
  9 12  1  0
  5 13  1  0
 13 14  2  0
 13 15  1  0
 15 16  1  0
 16 17  1  0
 17 18  1  0
 18 19  1  0
 19 20  2  0
 20 21  1  0
 21 22  2  0
 22 23  1  0
 23 24  2  0
 24 15  1  0
 24 19  1  0
M  END
$$$$
