protein_ligand_3
     RDKit          3D

 24 25  0  0  0  0  0  0  0  0999 V2000
    8.1719    7.5820   -4.0171 C   0  0  0  0  0  0  0  0  0  0  0  0
    7.7667    8.9687   -3.6638 C   0  0  0  0  0  0  0  0  0  0  0  0
    8.6543    9.4281   -2.5277 C   0  0  0  0  0  0  0  0  0  0  0  0
    8.0336    9.9642   -4.8041 C   0  0  0  0  0  0  0  0  0  0  0  0
    6.3252    9.1430   -3.2815 C   0  0  1  0  0  0  0  0  0  0  0  0
    5.5389    8.0055   -3.2038 N   0  0  0  0  0  0  0  0  0  0  0  0
    4.3084    7.8163   -3.8937 C   0  0  0  0  0  0  0  0  0  0  0  0
    4.1306    8.6682   -4.8070 O   0  0  0  0  0  0  0  0  0  0  0  0
    3.3199    6.7543   -3.6123 C   0  0  0  0  0  0  0  0  0  0  0  0
    2.1910    6.8935   -4.4337 F   0  0  0  0  0  0  0  0  0  0  0  0
    3.8716    5.5267   -3.8716 F   0  0  0  0  0  0  0  0  0  0  0  0
    2.9390    6.8433   -2.2834 F   0  0  0  0  0  0  0  0  0  0  0  0
    6.1261   10.0892   -2.1679 C   0  0  0  0  0  0  0  0  0  0  0  0
    6.1784    9.6231   -0.9553 O   0  0  0  0  0  0  0  0  0  0  0  0
    5.8806   11.4735   -2.1965 N   0  0  0  0  0  0  0  0  0  0  0  0
    5.8995   12.2106   -3.4555 C   0  0  0  0  0  0  0  0  0  0  0  0
    5.2883   13.5850   -3.3525 C   0  0  0  0  0  0  0  0  0  0  0  0
    4.3007   13.6864   -2.3319 O   0  0  0  0  0  0  0  0  0  0  0  0
    4.7192   13.3377   -1.0524 C   0  0  0  0  0  0  0  0  0  0  0  0
    4.3855   14.0274    0.0920 C   0  0  0  0  0  0  0  0  0  0  0  0
    4.8595   13.5924    1.3042 C   0  0  0  0  0  0  0  0  0  0  0  0
    5.6593   12.4751    1.3480 C   0  0  0  0  0  0  0  0  0  0  0  0
    5.9917   11.7834    0.1899 C   0  0  0  0  0  0  0  0  0  0  0  0
    5.5314   12.1962   -1.0169 C   0  0  0  0  0  0  0  0  0  0  0  0
  1  2  1  0
  2  3  1  0
  2  4  1  0
  2  5  1  0
  5  6  1  1
  6  7  1  0
  7  8  2  0
  7  9  1  0
  9 10  1  0
  9 11  1  0
  9 12  1  0
  5 13  1  0
 13 14  2  0
 13 15  1  0
 15 16  1  0
 16 17  1  0
 17 18  1  0
 18 19  1  0
 19 20  2  0
 20 21  1  0
 21 22  2  0
 22 23  1  0
 23 24  2  0
 24 15  1  0
 24 19  1  0
M  END
$$$$
