protein_ligand_3
     RDKit          3D

 22 23  0  0  0  0  0  0  0  0999 V2000
    5.1946   11.3896   -5.1903 C   0  0  0  0  0  0  0  0  0  0  0  0
    6.1178   10.3064   -4.7248 C   0  0  0  0  0  0  0  0  0  0  0  0
    7.5161   10.7730   -4.5586 C   0  0  0  0  0  0  0  0  0  0  0  0
    6.0708    9.1484   -5.7521 C   0  0  0  0  0  0  0  0  0  0  0  0
    5.6175    9.6430   -3.4338 C   0  0  2  0  0  0  0  0  0  0  0  0
    4.6629    8.5893   -3.8817 N   0  0  0  0  0  0  0  0  0  0  0  0
    4.6070    7.3790   -3.1575 C   0  0  0  0  0  0  0  0  0  0  0  0
    5.4426    7.2182   -2.2165 O   0  0  0  0  0  0  0  0  0  0  0  0
    3.6425    6.3036   -3.4307 C   0  0  0  0  0  0  0  0  0  0  0  0
    3.6366    5.9976   -4.7656 F   0  0  0  0  0  0  0  0  0  0  0  0
    2.3775    6.7749   -3.0806 F   0  0  0  0  0  0  0  0  0  0  0  0
    3.9711    5.1954   -2.6424 F   0  0  0  0  0  0  0  0  0  0  0  0
    4.9152   10.5655   -2.5370 C   0  0  0  0  0  0  0  0  0  0  0  0
    3.6295   10.5108   -2.5853 O   0  0  0  0  0  0  0  0  0  0  0  0
    5.4562   11.4849   -1.6388 N   0  0  0  0  0  0  0  0  0  0  0  0
    6.8524   11.7802   -1.4078 C   0  0  0  0  0  0  0  0  0  0  0  0
    6.9422   12.1012    0.0969 C   0  0  0  0  0  0  0  0  0  0  0  0
    6.3694   13.5178    0.3129 C   0  0  0  0  0  0  0  0  0  0  0  0
    5.1935   13.6516   -0.6499 C   0  0  0  0  0  0  0  0  0  0  0  0
    4.5459   12.2862   -0.7766 C   0  0  0  0  0  0  0  0  0  0  0  0
    4.5817   11.5637    0.5725 C   0  0  0  0  0  0  0  0  0  0  0  0
    6.0208   11.1606    0.8372 C   0  0  0  0  0  0  0  0  0  0  0  0
  1  2  1  0
  2  3  1  0
  2  4  1  0
  2  5  1  0
  5  6  1  6
  6  7  1  0
  7  8  2  0
  7  9  1  0
  9 10  1  0
  9 11  1  0
  9 12  1  0
  5 13  1  0
 13 14  2  0
 13 15  1  0
 15 16  1  0
 16 17  1  0
 17 18  1  0
 18 19  1  0
 19 20  1  0
 20 21  1  0
 21 22  1  0
 20 15  1  0
 22 17  1  0
M  END
$$$$
