protein_ligand_3
     RDKit          3D

 22 23  0  0  0  0  0  0  0  0999 V2000
    6.0987    9.4423   -5.5708 C   0  0  0  0  0  0  0  0  0  0  0  0
    6.6842    9.7336   -4.2237 C   0  0  0  0  0  0  0  0  0  0  0  0
    7.1565   11.1335   -4.0912 C   0  0  0  0  0  0  0  0  0  0  0  0
    7.8625    8.7582   -3.9811 C   0  0  0  0  0  0  0  0  0  0  0  0
    5.7101    9.3871   -3.0887 C   0  0  2  0  0  0  0  0  0  0  0  0
    4.7631    8.3973   -3.6764 N   0  0  0  0  0  0  0  0  0  0  0  0
    4.4217    7.2580   -2.9163 C   0  0  0  0  0  0  0  0  0  0  0  0
    5.0771    7.0443   -1.8511 O   0  0  0  0  0  0  0  0  0  0  0  0
    3.3581    6.3132   -3.2869 C   0  0  0  0  0  0  0  0  0  0  0  0
    3.8065    5.4444   -4.2460 F   0  0  0  0  0  0  0  0  0  0  0  0
    2.3049    7.0549   -3.8214 F   0  0  0  0  0  0  0  0  0  0  0  0
    2.9308    5.6441   -2.1348 F   0  0  0  0  0  0  0  0  0  0  0  0
    4.9463   10.5396   -2.6021 C   0  0  0  0  0  0  0  0  0  0  0  0
    3.7731   10.6803   -3.1141 O   0  0  0  0  0  0  0  0  0  0  0  0
    5.3210   11.4941   -1.6571 N   0  0  0  0  0  0  0  0  0  0  0  0
    6.5688   11.5796   -0.9321 C   0  0  0  0  0  0  0  0  0  0  0  0
    6.1819   12.1378    0.4514 C   0  0  0  0  0  0  0  0  0  0  0  0
    5.9057   13.6476    0.2913 C   0  0  0  0  0  0  0  0  0  0  0  0
    5.2174   13.8125   -1.0602 C   0  0  0  0  0  0  0  0  0  0  0  0
    4.3680   12.5785   -1.2966 C   0  0  0  0  0  0  0  0  0  0  0  0
    3.7522   12.1074    0.0233 C   0  0  0  0  0  0  0  0  0  0  0  0
    4.8689   11.5143    0.8628 C   0  0  0  0  0  0  0  0  0  0  0  0
  1  2  1  0
  2  3  1  0
  2  4  1  0
  2  5  1  0
  5  6  1  6
  6  7  1  0
  7  8  2  0
  7  9  1  0
  9 10  1  0
  9 11  1  0
  9 12  1  0
  5 13  1  0
 13 14  2  0
 13 15  1  0
 15 16  1  0
 16 17  1  0
 17 18  1  0
 18 19  1  0
 19 20  1  0
 20 21  1  0
 21 22  1  0
 20 15  1  0
 22 17  1  0
M  END
$$$$
