protein_ligand_3
     RDKit          3D

 22 23  0  0  0  0  0  0  0  0999 V2000
    7.5327   10.3659   -5.4526 C   0  0  0  0  0  0  0  0  0  0  0  0
    6.2656    9.5680   -5.4368 C   0  0  0  0  0  0  0  0  0  0  0  0
    6.3167    8.3877   -6.3340 C   0  0  0  0  0  0  0  0  0  0  0  0
    5.0983   10.4950   -5.8570 C   0  0  0  0  0  0  0  0  0  0  0  0
    5.8740    9.1431   -4.0144 C   0  0  2  0  0  0  0  0  0  0  0  0
    5.0097    7.9415   -4.1905 N   0  0  0  0  0  0  0  0  0  0  0  0
    4.7806    7.1070   -3.0754 C   0  0  0  0  0  0  0  0  0  0  0  0
    5.4082    7.3713   -2.0049 O   0  0  0  0  0  0  0  0  0  0  0  0
    3.8630    5.9584   -3.0852 C   0  0  0  0  0  0  0  0  0  0  0  0
    4.0051    5.2459   -4.2462 F   0  0  0  0  0  0  0  0  0  0  0  0
    2.5625    6.4592   -3.0314 F   0  0  0  0  0  0  0  0  0  0  0  0
    4.1161    5.1723   -1.9558 F   0  0  0  0  0  0  0  0  0  0  0  0
    5.1175   10.1659   -3.2864 C   0  0  0  0  0  0  0  0  0  0  0  0
    3.8377   10.1013   -3.4143 O   0  0  0  0  0  0  0  0  0  0  0  0
    5.6012   11.1901   -2.4730 N   0  0  0  0  0  0  0  0  0  0  0  0
    6.9753   11.4631   -2.1164 C   0  0  0  0  0  0  0  0  0  0  0  0
    6.9069   12.0063   -0.6758 C   0  0  0  0  0  0  0  0  0  0  0  0
    6.3941   13.4603   -0.7429 C   0  0  0  0  0  0  0  0  0  0  0  0
    5.3483   13.4909   -1.8533 C   0  0  0  0  0  0  0  0  0  0  0  0
    4.6434   12.1481   -1.8574 C   0  0  0  0  0  0  0  0  0  0  0  0
    4.4802   11.6392   -0.4229 C   0  0  0  0  0  0  0  0  0  0  0  0
    5.8533   11.2260    0.0745 C   0  0  0  0  0  0  0  0  0  0  0  0
  1  2  1  0
  2  3  1  0
  2  4  1  0
  2  5  1  0
  5  6  1  6
  6  7  1  0
  7  8  2  0
  7  9  1  0
  9 10  1  0
  9 11  1  0
  9 12  1  0
  5 13  1  0
 13 14  2  0
 13 15  1  0
 15 16  1  0
 16 17  1  0
 17 18  1  0
 18 19  1  0
 19 20  1  0
 20 21  1  0
 21 22  1  0
 20 15  1  0
 22 17  1  0
M  END
$$$$
