protein_ligand_3
     RDKit          3D

 24 25  0  0  0  0  0  0  0  0999 V2000
    7.1493    8.5351   -6.2461 C   0  0  0  0  0  0  0  0  0  0  0  0
    7.3839    8.6265   -4.7803 C   0  0  0  0  0  0  0  0  0  0  0  0
    8.2318    7.4393   -4.3789 C   0  0  0  0  0  0  0  0  0  0  0  0
    8.2191    9.8589   -4.3976 C   0  0  0  0  0  0  0  0  0  0  0  0
    6.1474    8.6754   -3.9299 C   0  0  1  0  0  0  0  0  0  0  0  0
    5.4134    7.5085   -3.7956 N   0  0  0  0  0  0  0  0  0  0  0  0
    4.0201    7.3869   -4.0598 C   0  0  0  0  0  0  0  0  0  0  0  0
    3.5280    8.4391   -4.5520 O   0  0  0  0  0  0  0  0  0  0  0  0
    3.1995    6.1839   -3.8078 C   0  0  0  0  0  0  0  0  0  0  0  0
    3.7850    5.0498   -4.3905 F   0  0  0  0  0  0  0  0  0  0  0  0
    3.1110    5.9572   -2.4589 F   0  0  0  0  0  0  0  0  0  0  0  0
    1.9402    6.3843   -4.3490 F   0  0  0  0  0  0  0  0  0  0  0  0
    6.3340    9.4173   -2.6692 C   0  0  0  0  0  0  0  0  0  0  0  0
    6.8476    8.7814   -1.6581 O   0  0  0  0  0  0  0  0  0  0  0  0
    6.0395   10.7575   -2.3618 N   0  0  0  0  0  0  0  0  0  0  0  0
    5.3324   11.6055   -3.3155 C   0  0  0  0  0  0  0  0  0  0  0  0
    4.8035   12.8787   -2.7053 C   0  0  0  0  0  0  0  0  0  0  0  0
    4.5251   12.7624   -1.3138 O   0  0  0  0  0  0  0  0  0  0  0  0
    5.5893   12.3499   -0.5194 C   0  0  0  0  0  0  0  0  0  0  0  0
    5.8949   12.8837    0.7128 C   0  0  0  0  0  0  0  0  0  0  0  0
    6.9736   12.3991    1.4091 C   0  0  0  0  0  0  0  0  0  0  0  0
    7.7267   11.3894    0.8584 C   0  0  0  0  0  0  0  0  0  0  0  0
    7.4127   10.8548   -0.3849 C   0  0  0  0  0  0  0  0  0  0  0  0
    6.3495   11.3186   -1.0872 C   0  0  0  0  0  0  0  0  0  0  0  0
  1  2  1  0
  2  3  1  0
  2  4  1  0
  2  5  1  0
  5  6  1  1
  6  7  1  0
  7  8  2  0
  7  9  1  0
  9 10  1  0
  9 11  1  0
  9 12  1  0
  5 13  1  0
 13 14  2  0
 13 15  1  0
 15 16  1  0
 16 17  1  0
 17 18  1  0
 18 19  1  0
 19 20  2  0
 20 21  1  0
 21 22  2  0
 22 23  1  0
 23 24  2  0
 24 15  1  0
 24 19  1  0
M  END
$$$$
