protein_ligand_3
     RDKit          3D

 22 23  0  0  0  0  0  0  0  0999 V2000
    5.2374    9.2036   -6.1163 C   0  0  0  0  0  0  0  0  0  0  0  0
    4.9290    9.9951   -4.8830 C   0  0  0  0  0  0  0  0  0  0  0  0
    3.5408   10.5178   -4.8659 C   0  0  0  0  0  0  0  0  0  0  0  0
    5.9326   11.1712   -4.7928 C   0  0  0  0  0  0  0  0  0  0  0  0
    5.2168    9.1969   -3.6034 C   0  0  2  0  0  0  0  0  0  0  0  0
    4.2808    8.0377   -3.6483 N   0  0  0  0  0  0  0  0  0  0  0  0
    4.7473    6.7780   -3.2148 C   0  0  0  0  0  0  0  0  0  0  0  0
    5.9698    6.6845   -2.8887 O   0  0  0  0  0  0  0  0  0  0  0  0
    3.9026    5.5784   -3.1208 C   0  0  0  0  0  0  0  0  0  0  0  0
    3.4377    5.2257   -4.3598 F   0  0  0  0  0  0  0  0  0  0  0  0
    2.8104    5.8960   -2.3139 F   0  0  0  0  0  0  0  0  0  0  0  0
    4.6464    4.5511   -2.5302 F   0  0  0  0  0  0  0  0  0  0  0  0
    4.9697    9.9555   -2.3737 C   0  0  0  0  0  0  0  0  0  0  0  0
    3.8475    9.7119   -1.7909 O   0  0  0  0  0  0  0  0  0  0  0  0
    5.7908   10.8966   -1.7535 N   0  0  0  0  0  0  0  0  0  0  0  0
    7.0919   11.3567   -2.1839 C   0  0  0  0  0  0  0  0  0  0  0  0
    7.8667   11.6215   -0.8783 C   0  0  0  0  0  0  0  0  0  0  0  0
    7.3432   12.9431   -0.2778 C   0  0  0  0  0  0  0  0  0  0  0  0
    5.8422   12.9678   -0.5496 C   0  0  0  0  0  0  0  0  0  0  0  0
    5.3407   11.5379   -0.4884 C   0  0  0  0  0  0  0  0  0  0  0  0
    6.0882   10.7684    0.6037 C   0  0  0  0  0  0  0  0  0  0  0  0
    7.5063   10.5404    0.1133 C   0  0  0  0  0  0  0  0  0  0  0  0
  1  2  1  0
  2  3  1  0
  2  4  1  0
  2  5  1  0
  5  6  1  1
  6  7  1  0
  7  8  2  0
  7  9  1  0
  9 10  1  0
  9 11  1  0
  9 12  1  0
  5 13  1  0
 13 14  2  0
 13 15  1  0
 15 16  1  0
 16 17  1  0
 17 18  1  0
 18 19  1  0
 19 20  1  0
 20 21  1  0
 21 22  1  0
 20 15  1  0
 22 17  1  0
M  END
$$$$
