protein_ligand_3
     RDKit          3D

 24 25  0  0  0  0  0  0  0  0999 V2000
    9.1584    9.4583   -2.3067 C   0  0  0  0  0  0  0  0  0  0  0  0
    8.3030    9.4565   -3.5234 C   0  0  0  0  0  0  0  0  0  0  0  0
    8.6874   10.6620   -4.3533 C   0  0  0  0  0  0  0  0  0  0  0  0
    8.5784    8.2460   -4.4298 C   0  0  0  0  0  0  0  0  0  0  0  0
    6.8227    9.4665   -3.2725 C   0  0  1  0  0  0  0  0  0  0  0  0
    6.1614    8.2496   -3.2798 N   0  0  0  0  0  0  0  0  0  0  0  0
    4.8213    8.0526   -3.7170 C   0  0  0  0  0  0  0  0  0  0  0  0
    4.3710    9.0428   -4.3560 O   0  0  0  0  0  0  0  0  0  0  0  0
    4.0088    6.8414   -3.4784 C   0  0  0  0  0  0  0  0  0  0  0  0
    4.4902    5.7613   -4.2336 F   0  0  0  0  0  0  0  0  0  0  0  0
    4.0816    6.4871   -2.1564 F   0  0  0  0  0  0  0  0  0  0  0  0
    2.6977    7.1087   -3.8369 F   0  0  0  0  0  0  0  0  0  0  0  0
    6.4226   10.3621   -2.1713 C   0  0  0  0  0  0  0  0  0  0  0  0
    6.3526    9.8614   -0.9734 O   0  0  0  0  0  0  0  0  0  0  0  0
    6.0913   11.7284   -2.1979 N   0  0  0  0  0  0  0  0  0  0  0  0
    6.0687   12.4682   -3.4552 C   0  0  0  0  0  0  0  0  0  0  0  0
    5.3725   13.8015   -3.3517 C   0  0  0  0  0  0  0  0  0  0  0  0
    4.3768   13.8387   -2.3346 O   0  0  0  0  0  0  0  0  0  0  0  0
    4.8116   13.5138   -1.0542 C   0  0  0  0  0  0  0  0  0  0  0  0
    4.4313   14.1787    0.0903 C   0  0  0  0  0  0  0  0  0  0  0  0
    4.9271   13.7713    1.3033 C   0  0  0  0  0  0  0  0  0  0  0  0
    5.7950   12.7061    1.3479 C   0  0  0  0  0  0  0  0  0  0  0  0
    6.1741   12.0392    0.1896 C   0  0  0  0  0  0  0  0  0  0  0  0
    5.6934   12.4252   -1.0181 C   0  0  0  0  0  0  0  0  0  0  0  0
  1  2  1  0
  2  3  1  0
  2  4  1  0
  2  5  1  0
  5  6  1  1
  6  7  1  0
  7  8  2  0
  7  9  1  0
  9 10  1  0
  9 11  1  0
  9 12  1  0
  5 13  1  0
 13 14  2  0
 13 15  1  0
 15 16  1  0
 16 17  1  0
 17 18  1  0
 18 19  1  0
 19 20  2  0
 20 21  1  0
 21 22  2  0
 22 23  1  0
 23 24  2  0
 24 15  1  0
 24 19  1  0
M  END
$$$$
