protein_ligand_3
     RDKit          3D

 22 23  0  0  0  0  0  0  0  0999 V2000
    3.2480   10.0010   -4.2863 C   0  0  0  0  0  0  0  0  0  0  0  0
    4.1544    8.9026   -3.8234 C   0  0  0  0  0  0  0  0  0  0  0  0
    4.5164    7.9584   -4.9087 C   0  0  0  0  0  0  0  0  0  0  0  0
    3.4491    8.1369   -2.6767 C   0  0  0  0  0  0  0  0  0  0  0  0
    5.4186    9.4505   -3.1461 C   0  0  2  0  0  0  0  0  0  0  0  0
    6.4679    8.4197   -3.3873 N   0  0  0  0  0  0  0  0  0  0  0  0
    7.7731    8.8495   -3.7099 C   0  0  0  0  0  0  0  0  0  0  0  0
    7.9321   10.0724   -4.0082 O   0  0  0  0  0  0  0  0  0  0  0  0
    8.9486    7.9666   -3.7195 C   0  0  0  0  0  0  0  0  0  0  0  0
    8.7599    6.9328   -4.5977 F   0  0  0  0  0  0  0  0  0  0  0  0
    9.0861    7.4363   -2.4370 F   0  0  0  0  0  0  0  0  0  0  0  0
   10.0780    8.7266   -4.0425 F   0  0  0  0  0  0  0  0  0  0  0  0
    5.2702    9.6435   -1.7006 C   0  0  0  0  0  0  0  0  0  0  0  0
    4.9365    8.5929   -1.0349 O   0  0  0  0  0  0  0  0  0  0  0  0
    5.4488   10.8094   -0.9568 N   0  0  0  0  0  0  0  0  0  0  0  0
    5.5196   10.9398    0.4812 C   0  0  0  0  0  0  0  0  0  0  0  0
    4.8628   12.3005    0.7851 C   0  0  0  0  0  0  0  0  0  0  0  0
    5.8694   13.4066    0.4047 C   0  0  0  0  0  0  0  0  0  0  0  0
    6.5792   12.9198   -0.8549 C   0  0  0  0  0  0  0  0  0  0  0  0
    5.5806   12.1130   -1.6622 C   0  0  0  0  0  0  0  0  0  0  0  0
    4.1884   12.7391   -1.5473 C   0  0  0  0  0  0  0  0  0  0  0  0
    3.6822   12.4734   -0.1413 C   0  0  0  0  0  0  0  0  0  0  0  0
  1  2  1  0
  2  3  1  0
  2  4  1  0
  2  5  1  0
  5  6  1  1
  6  7  1  0
  7  8  2  0
  7  9  1  0
  9 10  1  0
  9 11  1  0
  9 12  1  0
  5 13  1  0
 13 14  2  0
 13 15  1  0
 15 16  1  0
 16 17  1  0
 17 18  1  0
 18 19  1  0
 19 20  1  0
 20 21  1  0
 21 22  1  0
 20 15  1  0
 22 17  1  0
M  END
$$$$
