protein_ligand_2
     RDKit          3D

 22 23  0  0  0  0  0  0  0  0999 V2000
    7.7979    8.1197   -4.1251 C   0  0  0  0  0  0  0  0  0  0  0  0
    7.1798    9.5450   -4.0669 C   0  0  0  0  0  0  0  0  0  0  0  0
    8.2974   10.4484   -3.7428 C   0  0  0  0  0  0  0  0  0  0  0  0
    6.7907    9.8167   -5.5132 C   0  0  0  0  0  0  0  0  0  0  0  0
    6.0318    9.4298   -3.1322 C   0  0  2  0  0  0  0  0  0  0  0  0
    5.1806    8.3450   -3.5953 N   0  0  0  0  0  0  0  0  0  0  0  0
    4.3222    7.5397   -2.8273 C   0  0  0  0  0  0  0  0  0  0  0  0
    4.4675    7.3839   -1.6139 O   0  0  0  0  0  0  0  0  0  0  0  0
    3.1660    6.8192   -3.4674 C   0  0  0  0  0  0  0  0  0  0  0  0
    3.6412    5.9411   -4.3930 F   0  0  0  0  0  0  0  0  0  0  0  0
    2.2897    7.6981   -4.0242 F   0  0  0  0  0  0  0  0  0  0  0  0
    2.5148    6.1581   -2.4408 F   0  0  0  0  0  0  0  0  0  0  0  0
    5.3129   10.6539   -2.7708 C   0  0  0  0  0  0  0  0  0  0  0  0
    4.3107   11.0496   -3.4791 O   0  0  0  0  0  0  0  0  0  0  0  0
    5.5720   11.5153   -1.6816 N   0  0  0  0  0  0  0  0  0  0  0  0
    6.6133   11.3757   -0.6905 C   0  0  0  0  0  0  0  0  0  0  0  0
    5.9096   11.7568    0.6406 C   0  0  0  0  0  0  0  0  0  0  0  0
    4.4692   11.3111    0.5244 C   0  0  0  0  0  0  0  0  0  0  0  0
    3.7094   12.2538   -0.4012 C   0  0  0  0  0  0  0  0  0  0  0  0
    4.7305   12.7162   -1.4497 C   0  0  0  0  0  0  0  0  0  0  0  0
    5.6282   13.7284   -0.7971 C   0  0  0  0  0  0  0  0  0  0  0  0
    5.9146   13.2866    0.6355 C   0  0  0  0  0  0  0  0  0  0  0  0
  1  2  1  0
  2  3  1  0
  2  4  1  0
  2  5  1  0
  5  6  1  6
  6  7  1  0
  7  8  2  0
  7  9  1  0
  9 10  1  0
  9 11  1  0
  9 12  1  0
  5 13  1  0
 13 14  2  0
 13 15  1  0
 15 16  1  0
 16 17  1  0
 17 18  1  0
 18 19  1  0
 19 20  1  0
 20 21  1  0
 21 22  1  0
 20 15  1  0
 22 17  1  0
M  END
$$$$
