protein_ligand_2
     RDKit          3D

 22 23  0  0  0  0  0  0  0  0999 V2000
    7.8737    8.4878   -3.2616 C   0  0  0  0  0  0  0  0  0  0  0  0
    7.7570    9.9929   -2.8903 C   0  0  0  0  0  0  0  0  0  0  0  0
    8.9387   10.2893   -2.0623 C   0  0  0  0  0  0  0  0  0  0  0  0
    7.9575   10.6987   -4.2240 C   0  0  0  0  0  0  0  0  0  0  0  0
    6.3973   10.1435   -2.3129 C   0  0  2  0  0  0  0  0  0  0  0  0
    5.4426    9.5805   -3.2550 N   0  0  0  0  0  0  0  0  0  0  0  0
    4.5404    8.5255   -3.0356 C   0  0  0  0  0  0  0  0  0  0  0  0
    4.5566    7.8405   -2.0118 O   0  0  0  0  0  0  0  0  0  0  0  0
    3.4954    8.1809   -4.0627 C   0  0  0  0  0  0  0  0  0  0  0  0
    3.4464    9.1659   -5.0013 F   0  0  0  0  0  0  0  0  0  0  0  0
    2.2807    7.9922   -3.4804 F   0  0  0  0  0  0  0  0  0  0  0  0
    3.8933    6.9790   -4.6213 F   0  0  0  0  0  0  0  0  0  0  0  0
    6.0193   11.4521   -1.7742 C   0  0  0  0  0  0  0  0  0  0  0  0
    6.2139   12.5200   -2.4703 O   0  0  0  0  0  0  0  0  0  0  0  0
    5.4258   11.7298   -0.5226 N   0  0  0  0  0  0  0  0  0  0  0  0
    4.9849   10.7706    0.4630 C   0  0  0  0  0  0  0  0  0  0  0  0
    3.6380   11.3547    0.9700 C   0  0  0  0  0  0  0  0  0  0  0  0
    2.9958   12.0677   -0.1988 C   0  0  0  0  0  0  0  0  0  0  0  0
    3.7184   13.3836   -0.4620 C   0  0  0  0  0  0  0  0  0  0  0  0
    5.1865   13.1305   -0.0926 C   0  0  0  0  0  0  0  0  0  0  0  0
    5.2853   13.1237    1.4063 C   0  0  0  0  0  0  0  0  0  0  0  0
    4.0569   12.4237    1.9810 C   0  0  0  0  0  0  0  0  0  0  0  0
  1  2  1  0
  2  3  1  0
  2  4  1  0
  2  5  1  0
  5  6  1  6
  6  7  1  0
  7  8  2  0
  7  9  1  0
  9 10  1  0
  9 11  1  0
  9 12  1  0
  5 13  1  0
 13 14  2  0
 13 15  1  0
 15 16  1  0
 16 17  1  0
 17 18  1  0
 18 19  1  0
 19 20  1  0
 20 21  1  0
 21 22  1  0
 20 15  1  0
 22 17  1  0
M  END
$$$$
