protein_ligand_2
     RDKit          3D

 23 24  0  0  0  0  0  0  0  0999 V2000
    6.7610   11.0322   -4.8948 C   0  0  0  0  0  0  0  0  0  0  0  0
    6.5053    9.5641   -4.8996 C   0  0  0  0  0  0  0  0  0  0  0  0
    5.9537    9.0066   -6.1641 C   0  0  0  0  0  0  0  0  0  0  0  0
    7.8589    8.8842   -4.6675 C   0  0  0  0  0  0  0  0  0  0  0  0
    5.6062    9.1720   -3.7260 C   0  0  1  0  0  0  0  0  0  0  0  0
    5.4675    7.7449   -3.6431 N   0  0  0  0  0  0  0  0  0  0  0  0
    4.1643    7.1182   -3.6631 C   0  0  0  0  0  0  0  0  0  0  0  0
    3.1900    7.8572   -3.9081 O   0  0  0  0  0  0  0  0  0  0  0  0
    3.9875    5.6822   -3.4088 C   0  0  0  0  0  0  0  0  0  0  0  0
    4.3726    5.4144   -2.1104 F   0  0  0  0  0  0  0  0  0  0  0  0
    4.8233    4.9817   -4.2576 F   0  0  0  0  0  0  0  0  0  0  0  0
    2.6795    5.2838   -3.5915 F   0  0  0  0  0  0  0  0  0  0  0  0
    5.9910    9.8507   -2.4843 C   0  0  0  0  0  0  0  0  0  0  0  0
    7.1334    9.5294   -1.9788 O   0  0  0  0  0  0  0  0  0  0  0  0
    5.2495   10.8185   -1.7776 N   0  0  0  0  0  0  0  0  0  0  0  0
    3.9130   11.2812   -2.0398 C   0  0  0  0  0  0  0  0  0  0  0  0
    3.7976   12.6293   -1.3469 C   0  0  0  0  0  0  0  0  0  0  0  0
    4.8841   12.5964   -0.3684 C   0  0  0  0  0  0  0  0  0  0  0  0
    5.1230   13.4263    0.6711 N   0  0  0  0  0  0  0  0  0  0  0  0
    6.1643   13.2866    1.5010 C   0  0  0  0  0  0  0  0  0  0  0  0
    7.0183   12.2353    1.2588 C   0  0  0  0  0  0  0  0  0  0  0  0
    6.8098   11.3692    0.2118 C   0  0  0  0  0  0  0  0  0  0  0  0
    5.7142   11.5351   -0.6427 C   0  0  0  0  0  0  0  0  0  0  0  0
  1  2  1  0
  2  3  1  0
  2  4  1  0
  2  5  1  0
  5  6  1  1
  6  7  1  0
  7  8  2  0
  7  9  1  0
  9 10  1  0
  9 11  1  0
  9 12  1  0
  5 13  1  0
 13 14  2  0
 13 15  1  0
 15 16  1  0
 16 17  1  0
 17 18  1  0
 18 19  2  0
 19 20  1  0
 20 21  2  0
 21 22  1  0
 22 23  2  0
 23 15  1  0
 23 18  1  0
M  END
$$$$
