protein_ligand_2
     RDKit          3D

 23 24  0  0  0  0  0  0  0  0999 V2000
    8.7045   11.1710   -2.1432 C   0  0  0  0  0  0  0  0  0  0  0  0
    7.6789   10.9698   -3.2055 C   0  0  0  0  0  0  0  0  0  0  0  0
    7.4850   12.1090   -4.1430 C   0  0  0  0  0  0  0  0  0  0  0  0
    8.1487    9.7777   -4.0461 C   0  0  0  0  0  0  0  0  0  0  0  0
    6.3367   10.5742   -2.5879 C   0  0  1  0  0  0  0  0  0  0  0  0
    5.8421   11.6149   -1.7307 N   0  0  0  0  0  0  0  0  0  0  0  0
    5.4996   11.3475   -0.3512 C   0  0  0  0  0  0  0  0  0  0  0  0
    5.7239   10.1950    0.0692 O   0  0  0  0  0  0  0  0  0  0  0  0
    4.9161   12.3769    0.5192 C   0  0  0  0  0  0  0  0  0  0  0  0
    4.8520   11.8808    1.8060 F   0  0  0  0  0  0  0  0  0  0  0  0
    3.6265   12.6309    0.0923 F   0  0  0  0  0  0  0  0  0  0  0  0
    5.6586   13.5395    0.5115 F   0  0  0  0  0  0  0  0  0  0  0  0
    5.3939   10.0697   -3.5914 C   0  0  0  0  0  0  0  0  0  0  0  0
    4.8724   10.9416   -4.3860 O   0  0  0  0  0  0  0  0  0  0  0  0
    4.9913    8.7333   -3.7859 N   0  0  0  0  0  0  0  0  0  0  0  0
    5.3847    7.5682   -3.0397 C   0  0  0  0  0  0  0  0  0  0  0  0
    5.0950    6.3802   -3.9428 C   0  0  0  0  0  0  0  0  0  0  0  0
    4.1355    6.9187   -4.9064 C   0  0  0  0  0  0  0  0  0  0  0  0
    3.3655    6.2631   -5.8027 N   0  0  0  0  0  0  0  0  0  0  0  0
    2.5195    6.8795   -6.6375 C   0  0  0  0  0  0  0  0  0  0  0  0
    2.4517    8.2514   -6.5561 C   0  0  0  0  0  0  0  0  0  0  0  0
    3.2185    8.9548   -5.6578 C   0  0  0  0  0  0  0  0  0  0  0  0
    4.0959    8.2887   -4.7950 C   0  0  0  0  0  0  0  0  0  0  0  0
  1  2  1  0
  2  3  1  0
  2  4  1  0
  2  5  1  0
  5  6  1  6
  6  7  1  0
  7  8  2  0
  7  9  1  0
  9 10  1  0
  9 11  1  0
  9 12  1  0
  5 13  1  0
 13 14  2  0
 13 15  1  0
 15 16  1  0
 16 17  1  0
 17 18  1  0
 18 19  2  0
 19 20  1  0
 20 21  2  0
 21 22  1  0
 22 23  2  0
 23 15  1  0
 23 18  1  0
M  END
$$$$
