protein_ligand_2
     RDKit          3D

 22 23  0  0  0  0  0  0  0  0999 V2000
    7.4212    7.9776   -3.7392 C   0  0  0  0  0  0  0  0  0  0  0  0
    7.0920    9.4966   -3.7078 C   0  0  0  0  0  0  0  0  0  0  0  0
    8.3163   10.1571   -3.2231 C   0  0  0  0  0  0  0  0  0  0  0  0
    6.9451    9.8531   -5.1803 C   0  0  0  0  0  0  0  0  0  0  0  0
    5.8375    9.6033   -2.9208 C   0  0  2  0  0  0  0  0  0  0  0  0
    4.8082    8.8385   -3.6075 N   0  0  0  0  0  0  0  0  0  0  0  0
    4.0315    7.7873   -3.0909 C   0  0  0  0  0  0  0  0  0  0  0  0
    4.3546    7.1565   -2.0833 O   0  0  0  0  0  0  0  0  0  0  0  0
    2.7463    7.3796   -3.7601 C   0  0  0  0  0  0  0  0  0  0  0  0
    1.9643    8.4798   -3.9383 F   0  0  0  0  0  0  0  0  0  0  0  0
    2.0998    6.4255   -3.0375 F   0  0  0  0  0  0  0  0  0  0  0  0
    3.1096    6.8239   -4.9742 F   0  0  0  0  0  0  0  0  0  0  0  0
    5.4127   10.9339   -2.4797 C   0  0  0  0  0  0  0  0  0  0  0  0
    4.8586   11.7466   -3.3135 O   0  0  0  0  0  0  0  0  0  0  0  0
    5.5228   11.4882   -1.1849 N   0  0  0  0  0  0  0  0  0  0  0  0
    5.6611   10.7694    0.0602 C   0  0  0  0  0  0  0  0  0  0  0  0
    4.7382   11.5456    1.0391 C   0  0  0  0  0  0  0  0  0  0  0  0
    3.5780   12.0771    0.2277 C   0  0  0  0  0  0  0  0  0  0  0  0
    4.0378   13.2573   -0.6201 C   0  0  0  0  0  0  0  0  0  0  0  0
    5.4980   12.9593   -0.9868 C   0  0  0  0  0  0  0  0  0  0  0  0
    6.3376   13.2251    0.2301 C   0  0  0  0  0  0  0  0  0  0  0  0
    5.5826   12.7472    1.4674 C   0  0  0  0  0  0  0  0  0  0  0  0
  1  2  1  0
  2  3  1  0
  2  4  1  0
  2  5  1  0
  5  6  1  6
  6  7  1  0
  7  8  2  0
  7  9  1  0
  9 10  1  0
  9 11  1  0
  9 12  1  0
  5 13  1  0
 13 14  2  0
 13 15  1  0
 15 16  1  0
 16 17  1  0
 17 18  1  0
 18 19  1  0
 19 20  1  0
 20 21  1  0
 21 22  1  0
 20 15  1  0
 22 17  1  0
M  END
$$$$
