protein_ligand_2
     RDKit          3D

 22 23  0  0  0  0  0  0  0  0999 V2000
    5.9197    9.9469   -5.2612 C   0  0  0  0  0  0  0  0  0  0  0  0
    6.7259    9.7027   -3.9547 C   0  0  0  0  0  0  0  0  0  0  0  0
    7.7215    8.6703   -4.2908 C   0  0  0  0  0  0  0  0  0  0  0  0
    7.4841   11.0086   -3.7624 C   0  0  0  0  0  0  0  0  0  0  0  0
    5.7021    9.4270   -2.9153 C   0  0  2  0  0  0  0  0  0  0  0  0
    4.8991    8.2991   -3.3615 N   0  0  0  0  0  0  0  0  0  0  0  0
    4.5932    7.1276   -2.6481 C   0  0  0  0  0  0  0  0  0  0  0  0
    5.1209    6.8502   -1.5700 O   0  0  0  0  0  0  0  0  0  0  0  0
    3.5879    6.1425   -3.1815 C   0  0  0  0  0  0  0  0  0  0  0  0
    3.8095    4.9240   -2.6159 F   0  0  0  0  0  0  0  0  0  0  0  0
    3.6425    6.0744   -4.5390 F   0  0  0  0  0  0  0  0  0  0  0  0
    2.3453    6.6381   -2.8277 F   0  0  0  0  0  0  0  0  0  0  0  0
    4.9272   10.5562   -2.3957 C   0  0  0  0  0  0  0  0  0  0  0  0
    3.7266   10.7664   -2.8165 O   0  0  0  0  0  0  0  0  0  0  0  0
    5.3299   11.5058   -1.4304 N   0  0  0  0  0  0  0  0  0  0  0  0
    6.5849   11.5421   -0.7164 C   0  0  0  0  0  0  0  0  0  0  0  0
    6.1748   11.9243    0.7320 C   0  0  0  0  0  0  0  0  0  0  0  0
    4.8127   11.3170    0.9823 C   0  0  0  0  0  0  0  0  0  0  0  0
    3.7472   12.1124    0.2373 C   0  0  0  0  0  0  0  0  0  0  0  0
    4.4279   12.6191   -1.0416 C   0  0  0  0  0  0  0  0  0  0  0  0
    5.3250   13.7616   -0.6592 C   0  0  0  0  0  0  0  0  0  0  0  0
    5.9930   13.4422    0.6754 C   0  0  0  0  0  0  0  0  0  0  0  0
  1  2  1  0
  2  3  1  0
  2  4  1  0
  2  5  1  0
  5  6  1  6
  6  7  1  0
  7  8  2  0
  7  9  1  0
  9 10  1  0
  9 11  1  0
  9 12  1  0
  5 13  1  0
 13 14  2  0
 13 15  1  0
 15 16  1  0
 16 17  1  0
 17 18  1  0
 18 19  1  0
 19 20  1  0
 20 21  1  0
 21 22  1  0
 20 15  1  0
 22 17  1  0
M  END
$$$$
