protein_ligand_2
     RDKit          3D

 23 24  0  0  0  0  0  0  0  0999 V2000
    7.5268    9.8276   -5.5264 C   0  0  0  0  0  0  0  0  0  0  0  0
    6.1323    9.3261   -5.6833 C   0  0  0  0  0  0  0  0  0  0  0  0
    5.1620   10.2849   -6.2778 C   0  0  0  0  0  0  0  0  0  0  0  0
    6.2046    8.1230   -6.6296 C   0  0  0  0  0  0  0  0  0  0  0  0
    5.5950    8.8075   -4.3485 C   0  0  1  0  0  0  0  0  0  0  0  0
    5.5687    9.8551   -3.3664 N   0  0  0  0  0  0  0  0  0  0  0  0
    5.8710    9.5859   -1.9780 C   0  0  0  0  0  0  0  0  0  0  0  0
    6.2673    8.4358   -1.7029 O   0  0  0  0  0  0  0  0  0  0  0  0
    5.7219   10.6109   -0.9363 C   0  0  0  0  0  0  0  0  0  0  0  0
    6.8145   11.4533   -0.9879 F   0  0  0  0  0  0  0  0  0  0  0  0
    5.7200    9.9852    0.2958 F   0  0  0  0  0  0  0  0  0  0  0  0
    4.5664   11.3467   -1.0993 F   0  0  0  0  0  0  0  0  0  0  0  0
    4.3492    8.0510   -4.5107 C   0  0  0  0  0  0  0  0  0  0  0  0
    3.2514    8.6858   -4.2749 O   0  0  0  0  0  0  0  0  0  0  0  0
    4.2158    6.7022   -4.8964 N   0  0  0  0  0  0  0  0  0  0  0  0
    3.0223    6.0044   -5.2933 C   0  0  0  0  0  0  0  0  0  0  0  0
    3.3237    4.5265   -5.1035 C   0  0  0  0  0  0  0  0  0  0  0  0
    4.7854    4.4837   -5.0804 C   0  0  0  0  0  0  0  0  0  0  0  0
    5.6102    3.4160   -5.1592 N   0  0  0  0  0  0  0  0  0  0  0  0
    6.9451    3.5122   -5.1253 C   0  0  0  0  0  0  0  0  0  0  0  0
    7.4765    4.7755   -5.0034 C   0  0  0  0  0  0  0  0  0  0  0  0
    6.6714    5.8867   -4.9203 C   0  0  0  0  0  0  0  0  0  0  0  0
    5.2783    5.7615   -4.9579 C   0  0  0  0  0  0  0  0  0  0  0  0
  1  2  1  0
  2  3  1  0
  2  4  1  0
  2  5  1  0
  5  6  1  1
  6  7  1  0
  7  8  2  0
  7  9  1  0
  9 10  1  0
  9 11  1  0
  9 12  1  0
  5 13  1  0
 13 14  2  0
 13 15  1  0
 15 16  1  0
 16 17  1  0
 17 18  1  0
 18 19  2  0
 19 20  1  0
 20 21  2  0
 21 22  1  0
 22 23  2  0
 23 15  1  0
 23 18  1  0
M  END
$$$$
