protein_ligand_2
     RDKit          3D

 23 24  0  0  0  0  0  0  0  0999 V2000
    8.0314   10.6349   -5.8881 C   0  0  0  0  0  0  0  0  0  0  0  0
    7.3724   11.1765   -4.6662 C   0  0  0  0  0  0  0  0  0  0  0  0
    7.9497   12.4357   -4.1228 C   0  0  0  0  0  0  0  0  0  0  0  0
    5.9214   11.4833   -5.0521 C   0  0  0  0  0  0  0  0  0  0  0  0
    7.3228   10.1139   -3.5672 C   0  0  1  0  0  0  0  0  0  0  0  0
    8.6477    9.7286   -3.1688 N   0  0  0  0  0  0  0  0  0  0  0  0
    9.0183    8.3353   -3.0546 C   0  0  0  0  0  0  0  0  0  0  0  0
    8.2117    7.5009   -3.5112 O   0  0  0  0  0  0  0  0  0  0  0  0
   10.2811    7.9145   -2.4330 C   0  0  0  0  0  0  0  0  0  0  0  0
   10.2636    8.2882   -1.1040 F   0  0  0  0  0  0  0  0  0  0  0  0
   11.3184    8.5842   -3.0535 F   0  0  0  0  0  0  0  0  0  0  0  0
   10.4713    6.5513   -2.5244 F   0  0  0  0  0  0  0  0  0  0  0  0
    6.4104   10.4849   -2.4806 C   0  0  0  0  0  0  0  0  0  0  0  0
    6.8063   11.4206   -1.6861 O   0  0  0  0  0  0  0  0  0  0  0  0
    5.1441    9.9311   -2.2054 N   0  0  0  0  0  0  0  0  0  0  0  0
    4.4572    8.8855   -2.9151 C   0  0  0  0  0  0  0  0  0  0  0  0
    2.9893    9.0301   -2.5475 C   0  0  0  0  0  0  0  0  0  0  0  0
    3.0292    9.8155   -1.3144 C   0  0  0  0  0  0  0  0  0  0  0  0
    2.0421   10.0585   -0.4239 N   0  0  0  0  0  0  0  0  0  0  0  0
    2.2093   10.8025    0.6766 C   0  0  0  0  0  0  0  0  0  0  0  0
    3.4610   11.3342    0.8857 C   0  0  0  0  0  0  0  0  0  0  0  0
    4.4913   11.1103    0.0035 C   0  0  0  0  0  0  0  0  0  0  0  0
    4.2928   10.3290   -1.1403 C   0  0  0  0  0  0  0  0  0  0  0  0
  1  2  1  0
  2  3  1  0
  2  4  1  0
  2  5  1  0
  5  6  1  1
  6  7  1  0
  7  8  2  0
  7  9  1  0
  9 10  1  0
  9 11  1  0
  9 12  1  0
  5 13  1  0
 13 14  2  0
 13 15  1  0
 15 16  1  0
 16 17  1  0
 17 18  1  0
 18 19  2  0
 19 20  1  0
 20 21  2  0
 21 22  1  0
 22 23  2  0
 23 15  1  0
 23 18  1  0
M  END
$$$$
