protein_ligand_2
     RDKit          3D

 22 23  0  0  0  0  0  0  0  0999 V2000
    7.0495    9.0070   -5.2451 C   0  0  0  0  0  0  0  0  0  0  0  0
    6.1203   10.1810   -4.8268 C   0  0  0  0  0  0  0  0  0  0  0  0
    6.9833   11.3742   -4.7866 C   0  0  0  0  0  0  0  0  0  0  0  0
    5.1952   10.3389   -6.0253 C   0  0  0  0  0  0  0  0  0  0  0  0
    5.4473    9.7175   -3.5870 C   0  0  2  0  0  0  0  0  0  0  0  0
    4.7296    8.4905   -3.8955 N   0  0  0  0  0  0  0  0  0  0  0  0
    4.6270    7.3339   -3.1038 C   0  0  0  0  0  0  0  0  0  0  0  0
    5.2875    7.1721   -2.0766 O   0  0  0  0  0  0  0  0  0  0  0  0
    3.6872    6.2216   -3.4851 C   0  0  0  0  0  0  0  0  0  0  0  0
    4.0073    5.7700   -4.7290 F   0  0  0  0  0  0  0  0  0  0  0  0
    2.3923    6.6339   -3.4270 F   0  0  0  0  0  0  0  0  0  0  0  0
    3.8641    5.2318   -2.5343 F   0  0  0  0  0  0  0  0  0  0  0  0
    4.6755   10.6951   -2.8161 C   0  0  0  0  0  0  0  0  0  0  0  0
    3.3867   10.6807   -2.8571 O   0  0  0  0  0  0  0  0  0  0  0  0
    5.1728   11.7133   -1.9725 N   0  0  0  0  0  0  0  0  0  0  0  0
    6.5564   11.9872   -1.6619 C   0  0  0  0  0  0  0  0  0  0  0  0
    6.5379   12.3040   -0.1415 C   0  0  0  0  0  0  0  0  0  0  0  0
    5.4446   11.4598    0.4742 C   0  0  0  0  0  0  0  0  0  0  0  0
    4.0808   12.0379    0.1147 C   0  0  0  0  0  0  0  0  0  0  0  0
    4.2453   12.6464   -1.2846 C   0  0  0  0  0  0  0  0  0  0  0  0
    4.9968   13.9384   -1.1351 C   0  0  0  0  0  0  0  0  0  0  0  0
    6.0798   13.7620   -0.0742 C   0  0  0  0  0  0  0  0  0  0  0  0
  1  2  1  0
  2  3  1  0
  2  4  1  0
  2  5  1  0
  5  6  1  6
  6  7  1  0
  7  8  2  0
  7  9  1  0
  9 10  1  0
  9 11  1  0
  9 12  1  0
  5 13  1  0
 13 14  2  0
 13 15  1  0
 15 16  1  0
 16 17  1  0
 17 18  1  0
 18 19  1  0
 19 20  1  0
 20 21  1  0
 21 22  1  0
 20 15  1  0
 22 17  1  0
M  END
$$$$
