protein_ligand_3
     RDKit          3D

 23 25  0  0  0  0  0  0  0  0999 V2000
    2.6379    6.4594   -9.1882 C   0  0  0  0  0  0  0  0  0  0  0  0
    2.6003    7.9771   -9.3480 C   0  0  0  0  0  0  0  0  0  0  0  0
    1.6378    8.2641  -10.4752 C   0  0  0  0  0  0  0  0  0  0  0  0
    2.0714    8.5989   -8.1030 C   0  0  0  0  0  0  0  0  0  0  0  0
    1.1989    9.5023   -8.1704 O   0  0  0  0  0  0  0  0  0  0  0  0
    2.5070    8.2185   -6.8471 O   0  0  0  0  0  0  0  0  0  0  0  0
    3.1976    9.0243   -5.9326 C   0  0  0  0  0  0  0  0  0  0  0  0
    3.6699    8.2375   -4.7581 C   0  0  1  0  0  0  0  0  0  0  0  0
    4.4942    7.1793   -5.1569 O   0  0  0  0  0  0  0  0  0  0  0  0
    4.7937    6.4530   -4.0132 C   0  0  1  0  0  0  0  0  0  0  0  0
    5.3405    5.1515   -4.3076 N   0  0  0  0  0  0  0  0  0  0  0  0
    5.8800    4.8341   -5.4985 C   0  0  0  0  0  0  0  0  0  0  0  0
    6.3162    3.5190   -5.4761 C   0  0  0  0  0  0  0  0  0  0  0  0
    6.0121    3.0605   -4.2110 C   0  0  0  0  0  0  0  0  0  0  0  0
    6.2860    1.7428   -3.7387 N   0  0  0  0  0  0  0  0  0  0  0  0
    5.4283    4.0707   -3.5429 N   0  0  0  0  0  0  0  0  0  0  0  0
    5.8009    7.3092   -3.2353 C   0  0  0  0  0  0  0  0  0  0  0  0
    5.0368    8.4307   -2.7265 N   0  0  0  0  0  0  0  0  0  0  0  0
    5.8738    9.4193   -2.0925 C   0  0  0  0  0  0  0  0  0  0  0  0
    6.1618   10.4648   -3.1451 C   0  0  2  0  0  0  0  0  0  0  0  0
    5.9191   11.6920   -2.6008 F   0  0  0  0  0  0  0  0  0  0  0  0
    5.2410   10.1482   -4.3162 C   0  0  0  0  0  0  0  0  0  0  0  0
    4.3186    9.1246   -3.7435 C   0  0  1  0  0  0  0  0  0  0  0  0
  1  2  1  0
  2  3  1  0
  2  4  1  0
  4  5  2  0
  4  6  1  0
  6  7  1  0
  8  7  1  6
  8  9  1  0
  9 10  1  0
 10 11  1  6
 11 12  1  0
 12 13  2  0
 13 14  1  0
 14 15  1  0
 14 16  2  0
 10 17  1  0
 17 18  1  0
 18 19  1  0
 19 20  1  0
 20 21  1  1
 20 22  1  0
 23 22  1  6
 23  8  1  0
 16 11  1  0
 23 18  1  0
M  END
$$$$
