protein_ligand_3
     RDKit          3D

 23 25  0  0  0  0  0  0  0  0999 V2000
    2.5951   11.3921   -8.6515 C   0  0  0  0  0  0  0  0  0  0  0  0
    2.6343   11.1162   -7.1507 C   0  0  0  0  0  0  0  0  0  0  0  0
    1.4524   11.8404   -6.5523 C   0  0  0  0  0  0  0  0  0  0  0  0
    2.4701    9.6570   -6.9051 C   0  0  0  0  0  0  0  0  0  0  0  0
    1.9883    8.9168   -7.8005 O   0  0  0  0  0  0  0  0  0  0  0  0
    2.8323    9.0660   -5.7087 O   0  0  0  0  0  0  0  0  0  0  0  0
    2.7214    7.7059   -5.3918 C   0  0  0  0  0  0  0  0  0  0  0  0
    3.8108    7.2676   -4.4739 C   0  0  1  0  0  0  0  0  0  0  0  0
    4.8403    6.6329   -5.1779 O   0  0  0  0  0  0  0  0  0  0  0  0
    5.7471    6.1746   -4.2331 C   0  0  1  0  0  0  0  0  0  0  0  0
    6.6729    5.2094   -4.7725 N   0  0  0  0  0  0  0  0  0  0  0  0
    7.0962    5.2321   -6.0493 C   0  0  0  0  0  0  0  0  0  0  0  0
    7.9751    4.1829   -6.2669 C   0  0  0  0  0  0  0  0  0  0  0  0
    8.0595    3.5272   -5.0561 C   0  0  0  0  0  0  0  0  0  0  0  0
    8.8607    2.3723   -4.8138 N   0  0  0  0  0  0  0  0  0  0  0  0
    7.2635    4.1750   -4.1876 N   0  0  0  0  0  0  0  0  0  0  0  0
    6.4844    7.4229   -3.7323 C   0  0  0  0  0  0  0  0  0  0  0  0
    5.5130    8.1472   -2.9370 N   0  0  0  0  0  0  0  0  0  0  0  0
    6.0055    9.4345   -2.5124 C   0  0  0  0  0  0  0  0  0  0  0  0
    5.4947   10.4351   -3.5232 C   0  0  2  0  0  0  0  0  0  0  0  0
    4.9358   11.4771   -2.8427 F   0  0  0  0  0  0  0  0  0  0  0  0
    4.4860    9.6864   -4.3843 C   0  0  0  0  0  0  0  0  0  0  0  0
    4.2997    8.4077   -3.6382 C   0  0  1  0  0  0  0  0  0  0  0  0
  1  2  1  0
  2  3  1  0
  2  4  1  0
  4  5  2  0
  4  6  1  0
  6  7  1  0
  8  7  1  6
  8  9  1  0
  9 10  1  0
 10 11  1  6
 11 12  1  0
 12 13  2  0
 13 14  1  0
 14 15  1  0
 14 16  2  0
 10 17  1  0
 17 18  1  0
 18 19  1  0
 19 20  1  0
 20 21  1  1
 20 22  1  0
 23 22  1  6
 23  8  1  0
 16 11  1  0
 23 18  1  0
M  END
$$$$
