protein_ligand_3
     RDKit          3D

 23 25  0  0  0  0  0  0  0  0999 V2000
   -0.0107    8.9939   -7.6953 C   0  0  0  0  0  0  0  0  0  0  0  0
    0.7763    8.1379   -6.7063 C   0  0  0  0  0  0  0  0  0  0  0  0
    0.3197    6.7141   -6.9161 C   0  0  0  0  0  0  0  0  0  0  0  0
    2.2297    8.2205   -7.0181 C   0  0  0  0  0  0  0  0  0  0  0  0
    2.6621    7.8073   -8.1245 O   0  0  0  0  0  0  0  0  0  0  0  0
    3.1463    8.7433   -6.1246 O   0  0  0  0  0  0  0  0  0  0  0  0
    2.9276    8.9837   -4.7619 C   0  0  0  0  0  0  0  0  0  0  0  0
    3.9411    8.2928   -3.9152 C   0  0  1  0  0  0  0  0  0  0  0  0
    4.7678    7.4688   -4.6871 O   0  0  0  0  0  0  0  0  0  0  0  0
    5.6005    6.7974   -3.8034 C   0  0  1  0  0  0  0  0  0  0  0  0
    6.2623    5.6690   -4.4102 N   0  0  0  0  0  0  0  0  0  0  0  0
    6.8312    5.7195   -5.6283 C   0  0  0  0  0  0  0  0  0  0  0  0
    7.3832    4.4861   -5.9356 C   0  0  0  0  0  0  0  0  0  0  0  0
    7.1178    3.6901   -4.8405 C   0  0  0  0  0  0  0  0  0  0  0  0
    7.5070    2.3234   -4.7183 N   0  0  0  0  0  0  0  0  0  0  0  0
    6.4442    4.4380   -3.9491 N   0  0  0  0  0  0  0  0  0  0  0  0
    6.6190    7.8404   -3.3262 C   0  0  0  0  0  0  0  0  0  0  0  0
    5.8734    8.7367   -2.4652 N   0  0  0  0  0  0  0  0  0  0  0  0
    6.6579    9.8731   -2.0493 C   0  0  0  0  0  0  0  0  0  0  0  0
    6.3266   10.9888   -3.0132 C   0  0  2  0  0  0  0  0  0  0  0  0
    6.0465   12.1083   -2.2855 F   0  0  0  0  0  0  0  0  0  0  0  0
    5.1343   10.5026   -3.8266 C   0  0  0  0  0  0  0  0  0  0  0  0
    4.7116    9.2750   -3.0911 C   0  0  1  0  0  0  0  0  0  0  0  0
  1  2  1  0
  2  3  1  0
  2  4  1  0
  4  5  2  0
  4  6  1  0
  6  7  1  0
  8  7  1  6
  8  9  1  0
  9 10  1  0
 10 11  1  6
 11 12  1  0
 12 13  2  0
 13 14  1  0
 14 15  1  0
 14 16  2  0
 10 17  1  0
 17 18  1  0
 18 19  1  0
 19 20  1  0
 20 21  1  1
 20 22  1  0
 23 22  1  6
 23  8  1  0
 16 11  1  0
 23 18  1  0
M  END
$$$$
