protein_ligand_3
     RDKit          3D

 23 25  0  0  0  0  0  0  0  0999 V2000
    2.6517    9.4205   -8.4675 C   0  0  0  0  0  0  0  0  0  0  0  0
    2.9508   10.9174   -8.4630 C   0  0  0  0  0  0  0  0  0  0  0  0
    1.6839   11.6047   -8.0132 C   0  0  0  0  0  0  0  0  0  0  0  0
    4.0254   11.2106   -7.4753 C   0  0  0  0  0  0  0  0  0  0  0  0
    4.9378   12.0283   -7.7595 O   0  0  0  0  0  0  0  0  0  0  0  0
    4.0658   10.6098   -6.2306 O   0  0  0  0  0  0  0  0  0  0  0  0
    4.5828   11.1738   -5.0570 C   0  0  0  0  0  0  0  0  0  0  0  0
    4.5880   10.1928   -3.9350 C   0  0  1  0  0  0  0  0  0  0  0  0
    5.1837    8.9867   -4.3207 O   0  0  0  0  0  0  0  0  0  0  0  0
    5.0472    8.1134   -3.2512 C   0  0  1  0  0  0  0  0  0  0  0  0
    5.2977    6.7412   -3.6175 N   0  0  0  0  0  0  0  0  0  0  0  0
    6.4714    6.3183   -4.1210 C   0  0  0  0  0  0  0  0  0  0  0  0
    6.4063    4.9572   -4.3728 C   0  0  0  0  0  0  0  0  0  0  0  0
    5.1336    4.5818   -3.9953 C   0  0  0  0  0  0  0  0  0  0  0  0
    4.6212    3.2535   -4.0812 N   0  0  0  0  0  0  0  0  0  0  0  0
    4.5022    5.6814   -3.5483 N   0  0  0  0  0  0  0  0  0  0  0  0
    6.0537    8.5936   -2.1981 C   0  0  0  0  0  0  0  0  0  0  0  0
    5.5081    9.8347   -1.6859 N   0  0  0  0  0  0  0  0  0  0  0  0
    6.4169   10.5005   -0.7853 C   0  0  0  0  0  0  0  0  0  0  0  0
    7.1701   11.5114   -1.6185 C   0  0  2  0  0  0  0  0  0  0  0  0
    7.1367   12.7084   -0.9648 F   0  0  0  0  0  0  0  0  0  0  0  0
    6.4625   11.5575   -2.9664 C   0  0  0  0  0  0  0  0  0  0  0  0
    5.2143   10.7809   -2.7106 C   0  0  1  0  0  0  0  0  0  0  0  0
  1  2  1  0
  2  3  1  0
  2  4  1  0
  4  5  2  0
  4  6  1  0
  6  7  1  0
  8  7  1  6
  8  9  1  0
  9 10  1  0
 10 11  1  6
 11 12  1  0
 12 13  2  0
 13 14  1  0
 14 15  1  0
 14 16  2  0
 10 17  1  0
 17 18  1  0
 18 19  1  0
 19 20  1  0
 20 21  1  1
 20 22  1  0
 23 22  1  6
 23  8  1  0
 16 11  1  0
 23 18  1  0
M  END
$$$$
