protein_ligand_1
     RDKit          3D

 23 24  0  0  0  0  0  0  0  0999 V2000
    8.7058   11.4981   -3.8626 C   0  0  0  0  0  0  0  0  0  0  0  0
    8.3017   10.0734   -3.4465 C   0  0  0  0  0  0  0  0  0  0  0  0
    8.0483    9.2270   -4.6466 C   0  0  0  0  0  0  0  0  0  0  0  0
    9.4524    9.5377   -2.6459 C   0  0  0  0  0  0  0  0  0  0  0  0
    7.0705   10.1566   -2.5446 C   0  0  1  0  0  0  0  0  0  0  0  0
    7.3575   10.9656   -1.3885 N   0  0  0  0  0  0  0  0  0  0  0  0
    6.5909   10.7379   -0.1879 C   0  0  0  0  0  0  0  0  0  0  0  0
    5.8857    9.6956   -0.1110 O   0  0  0  0  0  0  0  0  0  0  0  0
    6.6712   11.7357    0.8909 C   0  0  0  0  0  0  0  0  0  0  0  0
    6.3985   13.0075    0.4160 F   0  0  0  0  0  0  0  0  0  0  0  0
    5.6660   11.4582    1.8243 F   0  0  0  0  0  0  0  0  0  0  0  0
    7.8993   11.7553    1.5043 F   0  0  0  0  0  0  0  0  0  0  0  0
    5.9703   10.6762   -3.3498 C   0  0  0  0  0  0  0  0  0  0  0  0
    5.8945   11.9579   -3.4044 O   0  0  0  0  0  0  0  0  0  0  0  0
    4.9991    9.9448   -4.0607 N   0  0  0  0  0  0  0  0  0  0  0  0
    3.9591   10.4333   -4.9455 C   0  0  0  0  0  0  0  0  0  0  0  0
    2.8975    9.3512   -4.8981 C   0  0  0  0  0  0  0  0  0  0  0  0
    3.6190    8.1292   -4.5020 C   0  0  0  0  0  0  0  0  0  0  0  0
    3.2934    6.8028   -4.5392 N   0  0  0  0  0  0  0  0  0  0  0  0
    4.1351    5.8477   -4.1169 C   0  0  0  0  0  0  0  0  0  0  0  0
    5.3754    6.1734   -3.6235 C   0  0  0  0  0  0  0  0  0  0  0  0
    5.6993    7.5348   -3.5895 C   0  0  0  0  0  0  0  0  0  0  0  0
    4.8390    8.5171   -4.0215 C   0  0  0  0  0  0  0  0  0  0  0  0
  1  2  1  0
  2  3  1  0
  2  4  1  0
  2  5  1  0
  5  6  1  1
  6  7  1  0
  7  8  2  0
  7  9  1  0
  9 10  1  0
  9 11  1  0
  9 12  1  0
  5 13  1  0
 13 14  2  0
 13 15  1  0
 15 16  1  0
 16 17  1  0
 17 18  1  0
 18 19  2  0
 19 20  1  0
 20 21  2  0
 21 22  1  0
 22 23  2  0
 23 15  1  0
 23 18  1  0
M  END
$$$$
