protein_ligand_1
     RDKit          3D

 23 24  0  0  0  0  0  0  0  0999 V2000
    7.8693    8.5584   -3.8898 C   0  0  0  0  0  0  0  0  0  0  0  0
    7.5806   10.0496   -3.7285 C   0  0  0  0  0  0  0  0  0  0  0  0
    8.8188   10.7605   -4.2171 C   0  0  0  0  0  0  0  0  0  0  0  0
    6.4661   10.3725   -4.6932 C   0  0  0  0  0  0  0  0  0  0  0  0
    7.2285   10.3815   -2.3100 C   0  0  2  0  0  0  0  0  0  0  0  0
    8.3415   10.1965   -1.4153 N   0  0  0  0  0  0  0  0  0  0  0  0
    8.6376   11.0972   -0.3585 C   0  0  0  0  0  0  0  0  0  0  0  0
    8.0630   12.2127   -0.3763 O   0  0  0  0  0  0  0  0  0  0  0  0
    9.5715   10.7877    0.7378 C   0  0  0  0  0  0  0  0  0  0  0  0
   10.2228   11.9163    1.2002 F   0  0  0  0  0  0  0  0  0  0  0  0
   10.5037    9.8415    0.3016 F   0  0  0  0  0  0  0  0  0  0  0  0
    8.8749   10.2411    1.7950 F   0  0  0  0  0  0  0  0  0  0  0  0
    5.9830    9.7286   -1.9091 C   0  0  0  0  0  0  0  0  0  0  0  0
    6.0983    8.4655   -1.6688 O   0  0  0  0  0  0  0  0  0  0  0  0
    4.7037   10.3011   -1.7598 N   0  0  0  0  0  0  0  0  0  0  0  0
    3.5054    9.5048   -1.4551 C   0  0  0  0  0  0  0  0  0  0  0  0
    2.7423   10.3853   -0.5552 C   0  0  0  0  0  0  0  0  0  0  0  0
    1.7629   10.1707    0.4144 C   0  0  0  0  0  0  0  0  0  0  0  0
    1.2334   11.2497    1.0815 C   0  0  0  0  0  0  0  0  0  0  0  0
    1.6169   12.5533    0.8477 C   0  0  0  0  0  0  0  0  0  0  0  0
    2.5850   12.7429   -0.1129 C   0  0  0  0  0  0  0  0  0  0  0  0
    3.1281   11.6805   -0.7915 C   0  0  0  0  0  0  0  0  0  0  0  0
    4.1914   11.6408   -1.8560 C   0  0  0  0  0  0  0  0  0  0  0  0
  1  2  1  0
  2  3  1  0
  2  4  1  0
  2  5  1  0
  5  6  1  1
  6  7  1  0
  7  8  2  0
  7  9  1  0
  9 10  1  0
  9 11  1  0
  9 12  1  0
  5 13  1  0
 13 14  2  0
 13 15  1  0
 15 16  1  0
 16 17  1  0
 17 18  2  0
 18 19  1  0
 19 20  2  0
 20 21  1  0
 21 22  2  0
 22 23  1  0
 23 15  1  0
 22 17  1  0
M  END
$$$$
