protein_ligand_1
     RDKit          3D

 23 24  0  0  0  0  0  0  0  0999 V2000
    8.2451   12.3678   -4.0756 C   0  0  0  0  0  0  0  0  0  0  0  0
    6.9133   11.7744   -3.6201 C   0  0  0  0  0  0  0  0  0  0  0  0
    5.9971   12.9522   -3.3950 C   0  0  0  0  0  0  0  0  0  0  0  0
    6.3700   11.0000   -4.7958 C   0  0  0  0  0  0  0  0  0  0  0  0
    7.0908   10.9210   -2.4009 C   0  0  2  0  0  0  0  0  0  0  0  0
    8.0031    9.8303   -2.6282 N   0  0  0  0  0  0  0  0  0  0  0  0
    8.9216    9.3774   -1.6447 C   0  0  0  0  0  0  0  0  0  0  0  0
    9.0408   10.0722   -0.6066 O   0  0  0  0  0  0  0  0  0  0  0  0
    9.7263    8.1516   -1.7850 C   0  0  0  0  0  0  0  0  0  0  0  0
   10.7740    8.3161   -2.6720 F   0  0  0  0  0  0  0  0  0  0  0  0
    8.9045    7.1010   -2.2036 F   0  0  0  0  0  0  0  0  0  0  0  0
   10.2613    7.8100   -0.5607 F   0  0  0  0  0  0  0  0  0  0  0  0
    5.7993   10.5516   -1.8230 C   0  0  0  0  0  0  0  0  0  0  0  0
    5.1259    9.7030   -2.5250 O   0  0  0  0  0  0  0  0  0  0  0  0
    5.2174   11.0031   -0.6213 N   0  0  0  0  0  0  0  0  0  0  0  0
    5.8559   12.0050    0.2456 C   0  0  0  0  0  0  0  0  0  0  0  0
    4.7136   12.7909    0.7408 C   0  0  0  0  0  0  0  0  0  0  0  0
    4.5688   14.0828    1.2461 C   0  0  0  0  0  0  0  0  0  0  0  0
    3.3244   14.5109    1.6432 C   0  0  0  0  0  0  0  0  0  0  0  0
    2.1909   13.7291    1.5718 C   0  0  0  0  0  0  0  0  0  0  0  0
    2.3558   12.4575    1.0698 C   0  0  0  0  0  0  0  0  0  0  0  0
    3.5889   12.0088    0.6670 C   0  0  0  0  0  0  0  0  0  0  0  0
    4.0048   10.6856    0.0825 C   0  0  0  0  0  0  0  0  0  0  0  0
  1  2  1  0
  2  3  1  0
  2  4  1  0
  2  5  1  0
  5  6  1  6
  6  7  1  0
  7  8  2  0
  7  9  1  0
  9 10  1  0
  9 11  1  0
  9 12  1  0
  5 13  1  0
 13 14  2  0
 13 15  1  0
 15 16  1  0
 16 17  1  0
 17 18  2  0
 18 19  1  0
 19 20  2  0
 20 21  1  0
 21 22  2  0
 22 23  1  0
 23 15  1  0
 22 17  1  0
M  END
$$$$
