protein_ligand_1
     RDKit          3D

 23 24  0  0  0  0  0  0  0  0999 V2000
    8.7652    9.1569   -2.9268 C   0  0  0  0  0  0  0  0  0  0  0  0
    7.5511    9.9994   -3.3134 C   0  0  0  0  0  0  0  0  0  0  0  0
    7.8225   11.3806   -2.7694 C   0  0  0  0  0  0  0  0  0  0  0  0
    7.5655   10.0979   -4.8191 C   0  0  0  0  0  0  0  0  0  0  0  0
    6.2844    9.3946   -2.7880 C   0  0  2  0  0  0  0  0  0  0  0  0
    5.9304    8.1840   -3.4827 N   0  0  0  0  0  0  0  0  0  0  0  0
    5.0914    7.1885   -2.9160 C   0  0  0  0  0  0  0  0  0  0  0  0
    4.9817    7.1732   -1.6660 O   0  0  0  0  0  0  0  0  0  0  0  0
    4.3575    6.1912   -3.7138 C   0  0  0  0  0  0  0  0  0  0  0  0
    3.5963    5.3507   -2.9228 F   0  0  0  0  0  0  0  0  0  0  0  0
    5.2635    5.4446   -4.4728 F   0  0  0  0  0  0  0  0  0  0  0  0
    3.5046    6.8361   -4.5846 F   0  0  0  0  0  0  0  0  0  0  0  0
    5.2237   10.3962   -2.6876 C   0  0  0  0  0  0  0  0  0  0  0  0
    4.6911   10.7216   -3.8176 O   0  0  0  0  0  0  0  0  0  0  0  0
    4.7285   11.0331   -1.5319 N   0  0  0  0  0  0  0  0  0  0  0  0
    5.2805   10.7907   -0.1905 C   0  0  0  0  0  0  0  0  0  0  0  0
    5.2057   12.1175    0.4434 C   0  0  0  0  0  0  0  0  0  0  0  0
    5.8817   12.7300    1.4984 C   0  0  0  0  0  0  0  0  0  0  0  0
    5.5455   14.0149    1.8530 C   0  0  0  0  0  0  0  0  0  0  0  0
    4.5647   14.7483    1.2196 C   0  0  0  0  0  0  0  0  0  0  0  0
    3.9101   14.1252    0.1808 C   0  0  0  0  0  0  0  0  0  0  0  0
    4.2292   12.8428   -0.1909 C   0  0  0  0  0  0  0  0  0  0  0  0
    3.6704   11.9745   -1.2858 C   0  0  0  0  0  0  0  0  0  0  0  0
  1  2  1  0
  2  3  1  0
  2  4  1  0
  2  5  1  0
  5  6  1  6
  6  7  1  0
  7  8  2  0
  7  9  1  0
  9 10  1  0
  9 11  1  0
  9 12  1  0
  5 13  1  0
 13 14  2  0
 13 15  1  0
 15 16  1  0
 16 17  1  0
 17 18  2  0
 18 19  1  0
 19 20  2  0
 20 21  1  0
 21 22  2  0
 22 23  1  0
 23 15  1  0
 22 17  1  0
M  END
$$$$
