protein_ligand_1
     RDKit          3D

 23 24  0  0  0  0  0  0  0  0999 V2000
    9.2535    8.4172   -4.6721 C   0  0  0  0  0  0  0  0  0  0  0  0
    8.1763    8.8253   -3.6527 C   0  0  0  0  0  0  0  0  0  0  0  0
    8.5785    8.4259   -2.2744 C   0  0  0  0  0  0  0  0  0  0  0  0
    8.0503   10.3164   -3.7636 C   0  0  0  0  0  0  0  0  0  0  0  0
    6.8487    8.1869   -4.0602 C   0  0  1  0  0  0  0  0  0  0  0  0
    6.9496    6.7519   -3.9978 N   0  0  0  0  0  0  0  0  0  0  0  0
    7.6556    6.0700   -5.0550 C   0  0  0  0  0  0  0  0  0  0  0  0
    8.1856    6.7587   -5.9685 O   0  0  0  0  0  0  0  0  0  0  0  0
    7.7233    4.6004   -5.0139 C   0  0  0  0  0  0  0  0  0  0  0  0
    8.4645    4.1051   -6.0734 F   0  0  0  0  0  0  0  0  0  0  0  0
    8.4176    4.2229   -3.8589 F   0  0  0  0  0  0  0  0  0  0  0  0
    6.4832    4.0119   -5.0387 F   0  0  0  0  0  0  0  0  0  0  0  0
    5.8141    8.7280   -3.1854 C   0  0  0  0  0  0  0  0  0  0  0  0
    6.1439    8.8224   -1.9469 O   0  0  0  0  0  0  0  0  0  0  0  0
    4.5178    9.1504   -3.5384 N   0  0  0  0  0  0  0  0  0  0  0  0
    4.0134    9.5515   -4.8376 C   0  0  0  0  0  0  0  0  0  0  0  0
    2.8401   10.4562   -4.5135 C   0  0  0  0  0  0  0  0  0  0  0  0
    2.4086   10.0491   -3.1648 C   0  0  0  0  0  0  0  0  0  0  0  0
    1.2756   10.2864   -2.4391 N   0  0  0  0  0  0  0  0  0  0  0  0
    1.1025    9.7958   -1.2028 C   0  0  0  0  0  0  0  0  0  0  0  0
    2.0736    9.0244   -0.6115 C   0  0  0  0  0  0  0  0  0  0  0  0
    3.2305    8.7873   -1.3633 C   0  0  0  0  0  0  0  0  0  0  0  0
    3.4118    9.2887   -2.6311 C   0  0  0  0  0  0  0  0  0  0  0  0
  1  2  1  0
  2  3  1  0
  2  4  1  0
  2  5  1  0
  5  6  1  1
  6  7  1  0
  7  8  2  0
  7  9  1  0
  9 10  1  0
  9 11  1  0
  9 12  1  0
  5 13  1  0
 13 14  2  0
 13 15  1  0
 15 16  1  0
 16 17  1  0
 17 18  1  0
 18 19  2  0
 19 20  1  0
 20 21  2  0
 21 22  1  0
 22 23  2  0
 23 15  1  0
 23 18  1  0
M  END
$$$$
