protein_ligand_1
     RDKit          3D

 23 24  0  0  0  0  0  0  0  0999 V2000
    8.2569    7.8818   -4.0769 C   0  0  0  0  0  0  0  0  0  0  0  0
    7.3965    9.1243   -4.3632 C   0  0  0  0  0  0  0  0  0  0  0  0
    8.2083   10.3673   -4.2336 C   0  0  0  0  0  0  0  0  0  0  0  0
    6.8900    8.9584   -5.7659 C   0  0  0  0  0  0  0  0  0  0  0  0
    6.2048    9.1265   -3.4061 C   0  0  1  0  0  0  0  0  0  0  0  0
    5.5125    7.8658   -3.4745 N   0  0  0  0  0  0  0  0  0  0  0  0
    4.0951    7.8783   -3.7423 C   0  0  0  0  0  0  0  0  0  0  0  0
    3.5569    8.9633   -4.0928 O   0  0  0  0  0  0  0  0  0  0  0  0
    3.3459    6.6202   -3.5939 C   0  0  0  0  0  0  0  0  0  0  0  0
    1.9940    6.8145   -3.8216 F   0  0  0  0  0  0  0  0  0  0  0  0
    3.7721    5.7329   -4.5887 F   0  0  0  0  0  0  0  0  0  0  0  0
    3.5004    6.0548   -2.3525 F   0  0  0  0  0  0  0  0  0  0  0  0
    6.7127    9.4306   -2.0726 C   0  0  0  0  0  0  0  0  0  0  0  0
    7.3029    8.4549   -1.4800 O   0  0  0  0  0  0  0  0  0  0  0  0
    6.6301   10.6506   -1.3738 N   0  0  0  0  0  0  0  0  0  0  0  0
    7.1880   10.9987   -0.0812 C   0  0  0  0  0  0  0  0  0  0  0  0
    6.2959   12.1206    0.4145 C   0  0  0  0  0  0  0  0  0  0  0  0
    5.7108   12.7064   -0.8043 C   0  0  0  0  0  0  0  0  0  0  0  0
    5.0544   13.8791   -1.0504 N   0  0  0  0  0  0  0  0  0  0  0  0
    4.6060   14.2048   -2.2719 C   0  0  0  0  0  0  0  0  0  0  0  0
    4.7933   13.3576   -3.3372 C   0  0  0  0  0  0  0  0  0  0  0  0
    5.4668   12.1588   -3.0745 C   0  0  0  0  0  0  0  0  0  0  0  0
    5.9280   11.8212   -1.8235 C   0  0  0  0  0  0  0  0  0  0  0  0
  1  2  1  0
  2  3  1  0
  2  4  1  0
  2  5  1  0
  5  6  1  1
  6  7  1  0
  7  8  2  0
  7  9  1  0
  9 10  1  0
  9 11  1  0
  9 12  1  0
  5 13  1  0
 13 14  2  0
 13 15  1  0
 15 16  1  0
 16 17  1  0
 17 18  1  0
 18 19  2  0
 19 20  1  0
 20 21  2  0
 21 22  1  0
 22 23  2  0
 23 15  1  0
 23 18  1  0
M  END
$$$$
