protein_ligand_1
     RDKit          3D

 23 24  0  0  0  0  0  0  0  0999 V2000
    4.0924    9.0996   -2.5437 C   0  0  0  0  0  0  0  0  0  0  0  0
    5.3432    9.4344   -3.3739 C   0  0  0  0  0  0  0  0  0  0  0  0
    5.9639    8.1919   -3.9141 C   0  0  0  0  0  0  0  0  0  0  0  0
    4.8716   10.3252   -4.4856 C   0  0  0  0  0  0  0  0  0  0  0  0
    6.3194   10.2170   -2.4959 C   0  0  1  0  0  0  0  0  0  0  0  0
    7.4530   10.6434   -3.2747 N   0  0  0  0  0  0  0  0  0  0  0  0
    8.7688   10.4997   -2.7012 C   0  0  0  0  0  0  0  0  0  0  0  0
    8.8725   10.0089   -1.5444 O   0  0  0  0  0  0  0  0  0  0  0  0
    9.9282   10.9332   -3.4975 C   0  0  0  0  0  0  0  0  0  0  0  0
   10.0973   10.1289   -4.6118 F   0  0  0  0  0  0  0  0  0  0  0  0
    9.6677   12.2155   -3.9940 F   0  0  0  0  0  0  0  0  0  0  0  0
   11.0970   10.9289   -2.7774 F   0  0  0  0  0  0  0  0  0  0  0  0
    5.5824   11.3264   -1.9003 C   0  0  0  0  0  0  0  0  0  0  0  0
    5.0461   12.1367   -2.7414 O   0  0  0  0  0  0  0  0  0  0  0  0
    5.3962   11.6049   -0.5324 N   0  0  0  0  0  0  0  0  0  0  0  0
    6.0500   11.0066    0.6155 C   0  0  0  0  0  0  0  0  0  0  0  0
    5.0610   11.2064    1.7478 C   0  0  0  0  0  0  0  0  0  0  0  0
    4.2417   12.3599    1.3366 C   0  0  0  0  0  0  0  0  0  0  0  0
    3.3820   13.1788    2.0125 N   0  0  0  0  0  0  0  0  0  0  0  0
    2.7375   14.1905    1.4123 C   0  0  0  0  0  0  0  0  0  0  0  0
    2.9211   14.4442    0.0745 C   0  0  0  0  0  0  0  0  0  0  0  0
    3.8038   13.5996   -0.6089 C   0  0  0  0  0  0  0  0  0  0  0  0
    4.4664   12.5612    0.0029 C   0  0  0  0  0  0  0  0  0  0  0  0
  1  2  1  0
  2  3  1  0
  2  4  1  0
  2  5  1  0
  5  6  1  6
  6  7  1  0
  7  8  2  0
  7  9  1  0
  9 10  1  0
  9 11  1  0
  9 12  1  0
  5 13  1  0
 13 14  2  0
 13 15  1  0
 15 16  1  0
 16 17  1  0
 17 18  1  0
 18 19  2  0
 19 20  1  0
 20 21  2  0
 21 22  1  0
 22 23  2  0
 23 15  1  0
 23 18  1  0
M  END
$$$$
