protein_ligand_2
     RDKit          3D

 22 23  0  0  0  0  0  0  0  0999 V2000
    1.9042    5.6685   -6.3145 C   0  0  0  0  0  0  0  0  0  0  0  0
    1.7728    7.1472   -6.0163 C   0  0  0  0  0  0  0  0  0  0  0  0
    0.9465    7.8456   -7.0895 C   0  0  0  0  0  0  0  0  0  0  0  0
    3.1274    7.7225   -5.9051 C   0  0  0  0  0  0  0  0  0  0  0  0
    3.5774    8.5235   -6.7694 O   0  0  0  0  0  0  0  0  0  0  0  0
    3.9921    7.4237   -4.8499 O   0  0  0  0  0  0  0  0  0  0  0  0
    5.2263    8.1187   -4.6686 C   0  0  0  0  0  0  0  0  0  0  0  0
    5.0675    8.9143   -3.3713 C   0  0  2  0  0  0  0  0  0  0  0  0
    4.0564    9.8440   -3.6024 O   0  0  0  0  0  0  0  0  0  0  0  0
    6.3596    9.5351   -2.9454 C   0  0  0  0  0  0  0  0  0  0  0  0
    6.1882   10.4787   -1.8522 N   0  0  0  0  0  0  0  0  0  0  0  0
    6.2854   10.1363   -0.5697 C   0  0  0  0  0  0  0  0  0  0  0  0
    6.0647   11.2852    0.1862 C   0  0  0  0  0  0  0  0  0  0  0  0
    5.8365   12.3050   -0.6936 C   0  0  0  0  0  0  0  0  0  0  0  0
    5.5544   13.7067   -0.3925 C   0  0  0  0  0  0  0  0  0  0  0  0
    5.8439   14.2107    0.8798 C   0  0  0  0  0  0  0  0  0  0  0  0
    5.5996   15.5202    1.2182 C   0  0  0  0  0  0  0  0  0  0  0  0
    5.0562   16.3849    0.3041 C   0  0  0  0  0  0  0  0  0  0  0  0
    4.7673   15.8994   -0.9512 C   0  0  0  0  0  0  0  0  0  0  0  0
    5.0161   14.5676   -1.2945 C   0  0  0  0  0  0  0  0  0  0  0  0
    4.7052   14.1629   -2.5500 F   0  0  0  0  0  0  0  0  0  0  0  0
    5.9222   11.7635   -1.9300 N   0  0  0  0  0  0  0  0  0  0  0  0
  1  2  1  0
  2  3  1  0
  2  4  1  0
  4  5  2  0
  4  6  1  0
  6  7  1  0
  7  8  1  0
  8  9  1  6
  8 10  1  0
 10 11  1  0
 11 12  1  0
 12 13  2  0
 13 14  1  0
 14 15  1  0
 15 16  2  0
 16 17  1  0
 17 18  2  0
 18 19  1  0
 19 20  2  0
 20 21  1  0
 14 22  2  0
 22 11  1  0
 20 15  1  0
M  END
$$$$
