protein_ligand_0
     RDKit          3D

 25 27  0  0  0  0  0  0  0  0999 V2000
    5.8593    5.4254   -7.1321 C   0  0  0  0  0  0  0  0  0  0  0  0
    5.4725    6.7242   -6.4170 C   0  0  0  0  0  0  0  0  0  0  0  0
    5.3201    7.7832   -7.5136 C   0  0  0  0  0  0  0  0  0  0  0  0
    4.1561    6.5732   -5.7475 C   0  0  0  0  0  0  0  0  0  0  0  0
    3.5159    5.5045   -5.8834 O   0  0  0  0  0  0  0  0  0  0  0  0
    3.6521    7.5947   -4.9907 O   0  0  0  0  0  0  0  0  0  0  0  0
    3.3516    7.5279   -3.6143 C   0  0  0  0  0  0  0  0  0  0  0  0
    4.4704    8.1471   -2.8412 C   0  0  1  0  0  0  0  0  0  0  0  0
    5.6681    8.1713   -3.5850 O   0  0  0  0  0  0  0  0  0  0  0  0
    6.6338    8.7634   -2.7719 C   0  0  1  0  0  0  0  0  0  0  0  0
    7.9691    8.5105   -3.1975 N   0  0  0  0  0  0  0  0  0  0  0  0
    8.5487    9.0387   -4.2903 C   0  0  0  0  0  0  0  0  0  0  0  0
    9.8575    8.5660   -4.3874 C   0  0  0  0  0  0  0  0  0  0  0  0
   10.0143    7.7360   -3.2981 C   0  0  0  0  0  0  0  0  0  0  0  0
   11.1896    7.0074   -2.9523 N   0  0  0  0  0  0  0  0  0  0  0  0
    8.8508    7.7342   -2.6110 N   0  0  0  0  0  0  0  0  0  0  0  0
    6.3058   10.2181   -2.7181 C   0  0  0  0  0  0  0  0  0  0  0  0
    7.2233   11.2151   -2.8177 C   0  0  0  0  0  0  0  0  0  0  0  0
    6.7910   12.5258   -2.7529 C   0  0  0  0  0  0  0  0  0  0  0  0
    5.4582   12.8323   -2.5906 C   0  0  0  0  0  0  0  0  0  0  0  0
    5.0287   14.1178   -2.5264 F   0  0  0  0  0  0  0  0  0  0  0  0
    4.5089   11.8349   -2.4872 C   0  0  0  0  0  0  0  0  0  0  0  0
    3.1901   12.1159   -2.3269 F   0  0  0  0  0  0  0  0  0  0  0  0
    4.9673   10.5357   -2.5550 C   0  0  0  0  0  0  0  0  0  0  0  0
    4.0902    9.4579   -2.4611 O   0  0  0  0  0  0  0  0  0  0  0  0
  1  2  1  0
  2  3  1  0
  2  4  1  0
  4  5  2  0
  4  6  1  0
  6  7  1  0
  8  7  1  6
  8  9  1  0
  9 10  1  0
 10 11  1  6
 11 12  1  0
 12 13  2  0
 13 14  1  0
 14 15  1  0
 14 16  2  0
 10 17  1  0
 17 18  2  0
 18 19  1  0
 19 20  2  0
 20 21  1  0
 20 22  1  0
 22 23  1  0
 22 24  2  0
 24 25  1  0
 25  8  1  0
 16 11  1  0
 24 17  1  0
M  END
$$$$
