protein_ligand_0
     RDKit          3D

 25 27  0  0  0  0  0  0  0  0999 V2000
    5.3682    6.6146   -6.0437 C   0  0  0  0  0  0  0  0  0  0  0  0
    4.1834    6.2025   -5.1638 C   0  0  0  0  0  0  0  0  0  0  0  0
    4.3364    4.6970   -4.9240 C   0  0  0  0  0  0  0  0  0  0  0  0
    4.2582    6.8807   -3.8454 C   0  0  0  0  0  0  0  0  0  0  0  0
    4.7382    6.2666   -2.8641 O   0  0  0  0  0  0  0  0  0  0  0  0
    3.8057    8.1641   -3.7094 O   0  0  0  0  0  0  0  0  0  0  0  0
    3.1120    8.6778   -2.5940 C   0  0  0  0  0  0  0  0  0  0  0  0
    4.0997    9.2328   -1.6197 C   0  0  1  0  0  0  0  0  0  0  0  0
    5.0371   10.0766   -2.2502 O   0  0  0  0  0  0  0  0  0  0  0  0
    5.9013   10.5312   -1.2548 C   0  0  1  0  0  0  0  0  0  0  0  0
    7.1238   11.0589   -1.7598 N   0  0  0  0  0  0  0  0  0  0  0  0
    7.2272   11.9994   -2.7157 C   0  0  0  0  0  0  0  0  0  0  0  0
    8.5761   12.2659   -2.9510 C   0  0  0  0  0  0  0  0  0  0  0  0
    9.2557   11.4352   -2.0860 C   0  0  0  0  0  0  0  0  0  0  0  0
   10.6707   11.3353   -1.9461 N   0  0  0  0  0  0  0  0  0  0  0  0
    8.3392   10.7276   -1.3894 N   0  0  0  0  0  0  0  0  0  0  0  0
    5.1304   11.5204   -0.4463 C   0  0  0  0  0  0  0  0  0  0  0  0
    5.6244   12.7110   -0.0170 C   0  0  0  0  0  0  0  0  0  0  0  0
    4.8074   13.5410    0.7265 C   0  0  0  0  0  0  0  0  0  0  0  0
    3.5140   13.1823    1.0350 C   0  0  0  0  0  0  0  0  0  0  0  0
    2.7078   13.9938    1.7648 F   0  0  0  0  0  0  0  0  0  0  0  0
    2.9917   11.9771    0.6090 C   0  0  0  0  0  0  0  0  0  0  0  0
    1.7192   11.6049    0.9025 F   0  0  0  0  0  0  0  0  0  0  0  0
    3.8283   11.1679   -0.1312 C   0  0  0  0  0  0  0  0  0  0  0  0
    3.3969    9.9323   -0.6078 O   0  0  0  0  0  0  0  0  0  0  0  0
  1  2  1  0
  2  3  1  0
  2  4  1  0
  4  5  2  0
  4  6  1  0
  6  7  1  0
  8  7  1  6
  8  9  1  0
  9 10  1  0
 10 11  1  6
 11 12  1  0
 12 13  2  0
 13 14  1  0
 14 15  1  0
 14 16  2  0
 10 17  1  0
 17 18  2  0
 18 19  1  0
 19 20  2  0
 20 21  1  0
 20 22  1  0
 22 23  1  0
 22 24  2  0
 24 25  1  0
 25  8  1  0
 16 11  1  0
 24 17  1  0
M  END
$$$$
