protein_ligand_0
     RDKit          3D

 25 27  0  0  0  0  0  0  0  0999 V2000
    5.8873   10.8104    1.2901 C   0  0  0  0  0  0  0  0  0  0  0  0
    5.7040   11.6131   -0.0021 C   0  0  0  0  0  0  0  0  0  0  0  0
    4.8586   12.8345    0.3733 C   0  0  0  0  0  0  0  0  0  0  0  0
    7.0151   12.1046   -0.4956 C   0  0  0  0  0  0  0  0  0  0  0  0
    7.2600   13.3334   -0.4715 O   0  0  0  0  0  0  0  0  0  0  0  0
    7.9429   11.2194   -0.9708 O   0  0  0  0  0  0  0  0  0  0  0  0
    8.6836   11.3647   -2.1623 C   0  0  0  0  0  0  0  0  0  0  0  0
    7.9634   10.6684   -3.2711 C   0  0  1  0  0  0  0  0  0  0  0  0
    7.0392    9.7232   -2.7806 O   0  0  0  0  0  0  0  0  0  0  0  0
    6.4330    9.1399   -3.8927 C   0  0  1  0  0  0  0  0  0  0  0  0
    5.7803    7.9075   -3.6042 N   0  0  0  0  0  0  0  0  0  0  0  0
    5.1306    7.6220   -2.4616 C   0  0  0  0  0  0  0  0  0  0  0  0
    4.6199    6.3261   -2.5375 C   0  0  0  0  0  0  0  0  0  0  0  0
    5.0029    5.8685   -3.7800 C   0  0  0  0  0  0  0  0  0  0  0  0
    4.7189    4.5858   -4.3332 N   0  0  0  0  0  0  0  0  0  0  0  0
    5.6992    6.8554   -4.3857 N   0  0  0  0  0  0  0  0  0  0  0  0
    5.5114   10.1680   -4.4586 C   0  0  0  0  0  0  0  0  0  0  0  0
    4.2493    9.9114   -4.8908 C   0  0  0  0  0  0  0  0  0  0  0  0
    3.4944   10.9529   -5.3954 C   0  0  0  0  0  0  0  0  0  0  0  0
    3.9978   12.2328   -5.4656 C   0  0  0  0  0  0  0  0  0  0  0  0
    3.2605   13.2589   -5.9603 F   0  0  0  0  0  0  0  0  0  0  0  0
    5.2779   12.5159   -5.0320 C   0  0  0  0  0  0  0  0  0  0  0  0
    5.7929   13.7710   -5.0926 F   0  0  0  0  0  0  0  0  0  0  0  0
    6.0096   11.4585   -4.5330 C   0  0  0  0  0  0  0  0  0  0  0  0
    7.3108   11.6393   -4.0702 O   0  0  0  0  0  0  0  0  0  0  0  0
  1  2  1  0
  2  3  1  0
  2  4  1  0
  4  5  2  0
  4  6  1  0
  6  7  1  0
  8  7  1  1
  8  9  1  0
  9 10  1  0
 10 11  1  1
 11 12  1  0
 12 13  2  0
 13 14  1  0
 14 15  1  0
 14 16  2  0
 10 17  1  0
 17 18  2  0
 18 19  1  0
 19 20  2  0
 20 21  1  0
 20 22  1  0
 22 23  1  0
 22 24  2  0
 24 25  1  0
 25  8  1  0
 16 11  1  0
 24 17  1  0
M  END
$$$$
