protein_ligand_0
     RDKit          3D

 25 27  0  0  0  0  0  0  0  0999 V2000
    5.6382    6.0145   -6.0659 C   0  0  0  0  0  0  0  0  0  0  0  0
    4.9713    7.3658   -5.7884 C   0  0  0  0  0  0  0  0  0  0  0  0
    3.9298    7.5602   -6.8950 C   0  0  0  0  0  0  0  0  0  0  0  0
    4.2514    7.3300   -4.4905 C   0  0  0  0  0  0  0  0  0  0  0  0
    4.1816    6.2519   -3.8555 O   0  0  0  0  0  0  0  0  0  0  0  0
    3.6719    8.4665   -3.9978 O   0  0  0  0  0  0  0  0  0  0  0  0
    3.3006    8.6848   -2.6548 C   0  0  0  0  0  0  0  0  0  0  0  0
    4.4559    9.2855   -1.9218 C   0  0  1  0  0  0  0  0  0  0  0  0
    5.2989   10.0154   -2.7849 O   0  0  0  0  0  0  0  0  0  0  0  0
    6.3330   10.5246   -2.0001 C   0  0  1  0  0  0  0  0  0  0  0  0
    7.4682   10.9391   -2.7535 N   0  0  0  0  0  0  0  0  0  0  0  0
    7.4240   11.6131   -3.9165 C   0  0  0  0  0  0  0  0  0  0  0  0
    8.7260   11.8452   -4.3603 C   0  0  0  0  0  0  0  0  0  0  0  0
    9.5329   11.2739   -3.3998 C   0  0  0  0  0  0  0  0  0  0  0  0
   10.9581   11.2467   -3.3996 N   0  0  0  0  0  0  0  0  0  0  0  0
    8.7307   10.7407   -2.4522 N   0  0  0  0  0  0  0  0  0  0  0  0
    5.7414   11.6260   -1.1855 C   0  0  0  0  0  0  0  0  0  0  0  0
    6.3380   12.8280   -0.9733 C   0  0  0  0  0  0  0  0  0  0  0  0
    5.6850   13.7669   -0.1978 C   0  0  0  0  0  0  0  0  0  0  0  0
    4.4519   13.5043    0.3566 C   0  0  0  0  0  0  0  0  0  0  0  0
    3.8067   14.4229    1.1188 F   0  0  0  0  0  0  0  0  0  0  0  0
    3.8277   12.2894    0.1537 C   0  0  0  0  0  0  0  0  0  0  0  0
    2.6122   12.0108    0.6914 F   0  0  0  0  0  0  0  0  0  0  0  0
    4.5011   11.3705   -0.6239 C   0  0  0  0  0  0  0  0  0  0  0  0
    3.9569   10.1160   -0.8882 O   0  0  0  0  0  0  0  0  0  0  0  0
  1  2  1  0
  2  3  1  0
  2  4  1  0
  4  5  2  0
  4  6  1  0
  6  7  1  0
  8  7  1  6
  8  9  1  0
  9 10  1  0
 10 11  1  6
 11 12  1  0
 12 13  2  0
 13 14  1  0
 14 15  1  0
 14 16  2  0
 10 17  1  0
 17 18  2  0
 18 19  1  0
 19 20  2  0
 20 21  1  0
 20 22  1  0
 22 23  1  0
 22 24  2  0
 24 25  1  0
 25  8  1  0
 16 11  1  0
 24 17  1  0
M  END
$$$$
