protein_ligand_4
     RDKit          3D

 18 20  0  0  0  0  0  0  0  0999 V2000
    7.4471    6.0742   -4.7171 C   0  0  0  0  0  0  0  0  0  0  0  0
    6.0885    6.4284   -4.2970 N   0  0  0  0  0  0  0  0  0  0  0  0
    5.1536    5.6382   -3.7518 C   0  0  0  0  0  0  0  0  0  0  0  0
    4.0521    6.3762   -3.5228 N   0  0  0  0  0  0  0  0  0  0  0  0
    4.2834    7.6211   -3.9177 C   0  0  0  0  0  0  0  0  0  0  0  0
    3.4297    8.8339   -3.8990 C   0  0  0  0  0  0  0  0  0  0  0  0
    4.1306   10.0084   -3.5000 N   0  0  0  0  0  0  0  0  0  0  0  0
    4.6802   10.8071   -4.4145 C   0  0  0  0  0  0  0  0  0  0  0  0
    4.5822   10.4770   -6.1388 Cl  0  0  0  0  0  0  0  0  0  0  0  0
    5.3627   11.9515   -4.0187 C   0  0  0  0  0  0  0  0  0  0  0  0
    5.4634   12.2432   -2.7188 N   0  0  0  0  0  0  0  0  0  0  0  0
    4.9144   11.4483   -1.7673 C   0  0  0  0  0  0  0  0  0  0  0  0
    5.0355   11.7521   -0.3358 C   0  0  0  0  0  0  0  0  0  0  0  0
    6.1028   12.6479    0.1904 C   0  0  0  0  0  0  0  0  0  0  0  0
    6.2119   11.1760    0.4085 C   0  0  0  0  0  0  0  0  0  0  0  0
    4.2482   10.3280   -2.2003 C   0  0  0  0  0  0  0  0  0  0  0  0
    3.7184    9.5628   -1.3194 O   0  0  0  0  0  0  0  0  0  0  0  0
    5.5463    7.6309   -4.3922 N   0  0  0  0  0  0  0  0  0  0  0  0
  1  2  1  0
  2  3  1  0
  3  4  2  0
  4  5  1  0
  5  6  1  0
  6  7  1  0
  7  8  1  0
  8  9  1  0
  8 10  2  0
 10 11  1  0
 11 12  2  0
 12 13  1  0
 13 14  1  0
 14 15  1  0
 12 16  1  0
 16 17  2  0
  5 18  2  0
 18  2  1  0
 16  7  1  0
 15 13  1  0
M  END
$$$$
