protein_ligand_4
     RDKit          3D

 18 20  0  0  0  0  0  0  0  0999 V2000
    6.9686    4.5078   -4.9295 C   0  0  0  0  0  0  0  0  0  0  0  0
    6.6707    5.8651   -4.4639 N   0  0  0  0  0  0  0  0  0  0  0  0
    7.5267    6.8643   -4.2106 C   0  0  0  0  0  0  0  0  0  0  0  0
    6.8226    7.9364   -3.8039 N   0  0  0  0  0  0  0  0  0  0  0  0
    5.5339    7.6228   -3.7986 C   0  0  0  0  0  0  0  0  0  0  0  0
    4.3304    8.4132   -3.4419 C   0  0  0  0  0  0  0  0  0  0  0  0
    4.6334    9.7426   -3.0288 N   0  0  0  0  0  0  0  0  0  0  0  0
    4.6101   10.7426   -3.9096 C   0  0  0  0  0  0  0  0  0  0  0  0
    4.2130   10.4992   -5.6051 Cl  0  0  0  0  0  0  0  0  0  0  0  0
    4.9066   12.0374   -3.5002 C   0  0  0  0  0  0  0  0  0  0  0  0
    5.2145   12.2707   -2.2212 N   0  0  0  0  0  0  0  0  0  0  0  0
    5.2461   11.2724   -1.3042 C   0  0  0  0  0  0  0  0  0  0  0  0
    5.6007   11.5172    0.0996 C   0  0  0  0  0  0  0  0  0  0  0  0
    5.2258   12.7789    0.7968 C   0  0  0  0  0  0  0  0  0  0  0  0
    6.6448   12.5640    0.3891 C   0  0  0  0  0  0  0  0  0  0  0  0
    4.9463   10.0082   -1.7494 C   0  0  0  0  0  0  0  0  0  0  0  0
    4.9669    9.0486   -0.9002 O   0  0  0  0  0  0  0  0  0  0  0  0
    5.4627    6.3398   -4.2094 N   0  0  0  0  0  0  0  0  0  0  0  0
  1  2  1  0
  2  3  1  0
  3  4  2  0
  4  5  1  0
  5  6  1  0
  6  7  1  0
  7  8  1  0
  8  9  1  0
  8 10  2  0
 10 11  1  0
 11 12  2  0
 12 13  1  0
 13 14  1  0
 14 15  1  0
 12 16  1  0
 16 17  2  0
  5 18  2  0
 18  2  1  0
 16  7  1  0
 15 13  1  0
M  END
$$$$
