protein_ligand_4
     RDKit          3D

 18 20  0  0  0  0  0  0  0  0999 V2000
    7.5572    4.8489   -5.1012 C   0  0  0  0  0  0  0  0  0  0  0  0
    6.1605    5.2302   -5.3284 N   0  0  0  0  0  0  0  0  0  0  0  0
    5.1252    4.4431   -5.6511 C   0  0  0  0  0  0  0  0  0  0  0  0
    4.0251    5.2098   -5.7628 N   0  0  0  0  0  0  0  0  0  0  0  0
    4.3567    6.4697   -5.5141 C   0  0  0  0  0  0  0  0  0  0  0  0
    3.5502    7.7144   -5.4974 C   0  0  0  0  0  0  0  0  0  0  0  0
    4.0454    8.6928   -4.5878 N   0  0  0  0  0  0  0  0  0  0  0  0
    5.0850    9.4568   -4.9221 C   0  0  0  0  0  0  0  0  0  0  0  0
    5.9013    9.3159   -6.4730 Cl  0  0  0  0  0  0  0  0  0  0  0  0
    5.5634   10.4095   -4.0301 C   0  0  0  0  0  0  0  0  0  0  0  0
    4.9751   10.5526   -2.8392 N   0  0  0  0  0  0  0  0  0  0  0  0
    3.9162    9.7887   -2.4731 C   0  0  0  0  0  0  0  0  0  0  0  0
    3.2749    9.9273   -1.1595 C   0  0  0  0  0  0  0  0  0  0  0  0
    2.7059    8.7570   -0.4349 C   0  0  0  0  0  0  0  0  0  0  0  0
    1.7828    9.7347   -1.0813 C   0  0  0  0  0  0  0  0  0  0  0  0
    3.4742    8.8600   -3.3833 C   0  0  0  0  0  0  0  0  0  0  0  0
    2.4728    8.1282   -3.0608 O   0  0  0  0  0  0  0  0  0  0  0  0
    5.6793    6.4595   -5.2483 N   0  0  0  0  0  0  0  0  0  0  0  0
  1  2  1  0
  2  3  1  0
  3  4  2  0
  4  5  1  0
  5  6  1  0
  6  7  1  0
  7  8  1  0
  8  9  1  0
  8 10  2  0
 10 11  1  0
 11 12  2  0
 12 13  1  0
 13 14  1  0
 14 15  1  0
 12 16  1  0
 16 17  2  0
  5 18  2  0
 18  2  1  0
 16  7  1  0
 15 13  1  0
M  END
$$$$
