protein_ligand_1
     RDKit          3D

 19 21  0  0  0  0  0  0  0  0999 V2000
    8.1288    6.0096   -3.3887 C   0  0  0  0  0  0  0  0  0  0  0  0
    7.1039    6.9851   -2.9910 N   0  0  0  0  0  0  0  0  0  0  0  0
    7.1431    7.7040   -1.8602 C   0  0  0  0  0  0  0  0  0  0  0  0
    6.0530    8.4863   -1.8239 N   0  0  0  0  0  0  0  0  0  0  0  0
    5.3253    8.2695   -2.9196 C   0  0  0  0  0  0  0  0  0  0  0  0
    4.0629    8.9197   -3.2654 C   0  0  0  0  0  0  0  0  0  0  0  0
    3.5806    8.7076   -4.5876 N   0  0  0  0  0  0  0  0  0  0  0  0
    3.9921    9.4416   -5.6185 C   0  0  0  0  0  0  0  0  0  0  0  0
    4.9477   10.5624   -5.4048 C   0  0  0  0  0  0  0  0  0  0  0  0
    4.8768   11.3343   -6.5905 O   0  0  0  0  0  0  0  0  0  0  0  0
    3.5368    9.2100   -6.8946 N   0  0  0  0  0  0  0  0  0  0  0  0
    2.6578    8.2420   -7.1839 C   0  0  0  0  0  0  0  0  0  0  0  0
    2.1606    7.9855   -8.5627 C   0  0  0  0  0  0  0  0  0  0  0  0
    3.1815    7.7402   -9.6540 C   0  0  0  0  0  0  0  0  0  0  0  0
    2.3736    8.9966   -9.6341 C   0  0  0  0  0  0  0  0  0  0  0  0
    2.2185    7.4705   -6.1275 C   0  0  0  0  0  0  0  0  0  0  0  0
    2.6803    7.7087   -4.8503 C   0  0  0  0  0  0  0  0  0  0  0  0
    2.3144    7.0395   -3.8589 O   0  0  0  0  0  0  0  0  0  0  0  0
    5.9965    7.3226   -3.6470 C   0  0  0  0  0  0  0  0  0  0  0  0
  1  2  1  0
  2  3  1  0
  3  4  2  0
  4  5  1  0
  5  6  1  0
  6  7  1  0
  7  8  1  0
  8  9  1  0
  9 10  1  0
  8 11  2  0
 11 12  1  0
 12 13  1  0
 13 14  1  0
 14 15  1  0
 12 16  2  0
 16 17  1  0
 17 18  2  0
  5 19  2  0
 19  2  1  0
 17  7  1  0
 15 13  1  0
M  END
$$$$
