protein_ligand_1
     RDKit          3D

 19 21  0  0  0  0  0  0  0  0999 V2000
    5.5239   13.3665   -2.1244 C   0  0  0  0  0  0  0  0  0  0  0  0
    5.8051   11.9240   -2.1107 N   0  0  0  0  0  0  0  0  0  0  0  0
    6.7267   11.3410   -1.3308 C   0  0  0  0  0  0  0  0  0  0  0  0
    6.7112   10.0221   -1.5796 N   0  0  0  0  0  0  0  0  0  0  0  0
    5.7898    9.7653   -2.5081 C   0  0  0  0  0  0  0  0  0  0  0  0
    5.4565    8.4538   -3.0602 C   0  0  0  0  0  0  0  0  0  0  0  0
    4.5159    8.4348   -4.1284 N   0  0  0  0  0  0  0  0  0  0  0  0
    4.8921    8.4624   -5.4045 C   0  0  0  0  0  0  0  0  0  0  0  0
    6.3339    8.5697   -5.7574 C   0  0  0  0  0  0  0  0  0  0  0  0
    6.3500    9.0896   -7.0750 O   0  0  0  0  0  0  0  0  0  0  0  0
    3.9742    8.4186   -6.4268 N   0  0  0  0  0  0  0  0  0  0  0  0
    2.6545    8.3469   -6.2108 C   0  0  0  0  0  0  0  0  0  0  0  0
    1.6553    8.2991   -7.3123 C   0  0  0  0  0  0  0  0  0  0  0  0
    1.9074    7.3463   -8.4620 C   0  0  0  0  0  0  0  0  0  0  0  0
    2.0039    8.8237   -8.6608 C   0  0  0  0  0  0  0  0  0  0  0  0
    2.2449    8.3182   -4.8934 C   0  0  0  0  0  0  0  0  0  0  0  0
    3.1717    8.3621   -3.8735 C   0  0  0  0  0  0  0  0  0  0  0  0
    2.8536    8.3388   -2.6640 O   0  0  0  0  0  0  0  0  0  0  0  0
    5.2258   10.9699   -2.8350 C   0  0  0  0  0  0  0  0  0  0  0  0
  1  2  1  0
  2  3  1  0
  3  4  2  0
  4  5  1  0
  5  6  1  0
  6  7  1  0
  7  8  1  0
  8  9  1  0
  9 10  1  0
  8 11  2  0
 11 12  1  0
 12 13  1  0
 13 14  1  0
 14 15  1  0
 12 16  2  0
 16 17  1  0
 17 18  2  0
  5 19  2  0
 19  2  1  0
 17  7  1  0
 15 13  1  0
M  END
$$$$
