protein_ligand_3
     RDKit          3D

 21 23  0  0  0  0  0  0  0  0999 V2000
   10.3706   10.7241   -2.6412 C   0  0  0  0  0  0  0  0  0  0  0  0
    8.9588   10.7304   -2.3353 N   0  0  0  0  0  0  0  0  0  0  0  0
    8.3543   10.9198   -1.1648 C   0  0  0  0  0  0  0  0  0  0  0  0
    7.0120   10.8411   -1.3448 N   0  0  0  0  0  0  0  0  0  0  0  0
    6.7941   10.5991   -2.6500 C   0  0  0  0  0  0  0  0  0  0  0  0
    5.4613   10.4412   -3.2725 C   0  0  0  0  0  0  0  0  0  0  0  0
    5.1790    9.0475   -3.6002 N   0  0  0  0  0  0  0  0  0  0  0  0
    5.4703    8.0743   -2.7207 C   0  0  0  0  0  0  0  0  0  0  0  0
    5.9925    8.4467   -1.6210 O   0  0  0  0  0  0  0  0  0  0  0  0
    5.2188    6.8030   -3.0037 N   0  0  0  0  0  0  0  0  0  0  0  0
    4.6575    6.4042   -4.1860 C   0  0  0  0  0  0  0  0  0  0  0  0
    4.3822    4.9737   -4.3445 C   0  0  0  0  0  0  0  0  0  0  0  0
    5.4383    4.0782   -3.6510 C   0  0  0  0  0  0  0  0  0  0  0  0
    4.0062    4.0881   -3.2170 C   0  0  0  0  0  0  0  0  0  0  0  0
    4.3490    7.3702   -5.1079 C   0  0  0  0  0  0  0  0  0  0  0  0
    3.7984    7.0375   -6.4214 C   0  0  0  0  0  0  0  0  0  0  0  0
    2.6057    6.9104   -6.7075 O   0  0  0  0  0  0  0  0  0  0  0  0
    4.6824    6.8317   -7.5031 O   0  0  0  0  0  0  0  0  0  0  0  0
    4.6305    8.6861   -4.7642 C   0  0  0  0  0  0  0  0  0  0  0  0
    4.2458    9.9394   -5.9186 Cl  0  0  0  0  0  0  0  0  0  0  0  0
    7.9951   10.5377   -3.2223 N   0  0  0  0  0  0  0  0  0  0  0  0
  1  2  1  0
  2  3  1  0
  3  4  2  0
  4  5  1  0
  5  6  1  0
  6  7  1  0
  7  8  1  0
  8  9  2  0
  8 10  1  0
 10 11  2  0
 11 12  1  0
 12 13  1  0
 13 14  1  0
 11 15  1  0
 15 16  1  0
 16 17  2  0
 16 18  1  0
 15 19  2  0
 19 20  1  0
  5 21  2  0
 21  2  1  0
 19  7  1  0
 14 12  1  0
M  END
$$$$
