protein_ligand_3
     RDKit          3D

 21 23  0  0  0  0  0  0  0  0999 V2000
    3.0949    9.1185  -10.7432 C   0  0  0  0  0  0  0  0  0  0  0  0
    2.4140    8.5884   -9.5847 N   0  0  0  0  0  0  0  0  0  0  0  0
    1.2234    7.9987   -9.5076 C   0  0  0  0  0  0  0  0  0  0  0  0
    0.9833    7.6590   -8.2163 N   0  0  0  0  0  0  0  0  0  0  0  0
    2.0479    8.0492   -7.4925 C   0  0  0  0  0  0  0  0  0  0  0  0
    2.1934    7.8668   -6.0315 C   0  0  0  0  0  0  0  0  0  0  0  0
    3.3666    7.0645   -5.7007 N   0  0  0  0  0  0  0  0  0  0  0  0
    3.4115    5.7636   -6.0341 C   0  0  0  0  0  0  0  0  0  0  0  0
    2.3902    5.3013   -6.6374 O   0  0  0  0  0  0  0  0  0  0  0  0
    4.4712    5.0217   -5.7410 N   0  0  0  0  0  0  0  0  0  0  0  0
    5.5680    5.5200   -5.0926 C   0  0  0  0  0  0  0  0  0  0  0  0
    6.6919    4.6034   -4.8822 C   0  0  0  0  0  0  0  0  0  0  0  0
    6.2695    3.1142   -4.9291 C   0  0  0  0  0  0  0  0  0  0  0  0
    7.2112    3.6984   -5.9349 C   0  0  0  0  0  0  0  0  0  0  0  0
    5.5563    6.8431   -4.7354 C   0  0  0  0  0  0  0  0  0  0  0  0
    6.6574    7.4524   -3.9904 C   0  0  0  0  0  0  0  0  0  0  0  0
    7.8436    7.4833   -4.3262 O   0  0  0  0  0  0  0  0  0  0  0  0
    6.3846    8.0815   -2.7559 O   0  0  0  0  0  0  0  0  0  0  0  0
    4.4246    7.5776   -5.0653 C   0  0  0  0  0  0  0  0  0  0  0  0
    4.3821    9.2675   -4.6249 Cl  0  0  0  0  0  0  0  0  0  0  0  0
    2.8970    8.6090   -8.3523 N   0  0  0  0  0  0  0  0  0  0  0  0
  1  2  1  0
  2  3  1  0
  3  4  2  0
  4  5  1  0
  5  6  1  0
  6  7  1  0
  7  8  1  0
  8  9  2  0
  8 10  1  0
 10 11  2  0
 11 12  1  0
 12 13  1  0
 13 14  1  0
 11 15  1  0
 15 16  1  0
 16 17  2  0
 16 18  1  0
 15 19  2  0
 19 20  1  0
  5 21  2  0
 21  2  1  0
 19  7  1  0
 14 12  1  0
M  END
$$$$
