protein_ligand_3
     RDKit          3D

 21 23  0  0  0  0  0  0  0  0999 V2000
    3.8995   13.1634    0.2429 C   0  0  0  0  0  0  0  0  0  0  0  0
    5.1180   12.6710   -0.3569 N   0  0  0  0  0  0  0  0  0  0  0  0
    6.3545   13.1543   -0.2633 C   0  0  0  0  0  0  0  0  0  0  0  0
    7.1892   12.3717   -0.9923 N   0  0  0  0  0  0  0  0  0  0  0  0
    6.4473   11.3927   -1.5406 C   0  0  0  0  0  0  0  0  0  0  0  0
    6.9708   10.3194   -2.4139 C   0  0  0  0  0  0  0  0  0  0  0  0
    5.9221    9.7400   -3.2468 N   0  0  0  0  0  0  0  0  0  0  0  0
    5.1851    8.7140   -2.7889 C   0  0  0  0  0  0  0  0  0  0  0  0
    5.4617    8.3007   -1.6170 O   0  0  0  0  0  0  0  0  0  0  0  0
    4.2279    8.1773   -3.5339 N   0  0  0  0  0  0  0  0  0  0  0  0
    3.9317    8.6225   -4.7933 C   0  0  0  0  0  0  0  0  0  0  0  0
    2.8122    7.9758   -5.4831 C   0  0  0  0  0  0  0  0  0  0  0  0
    2.7801    6.4423   -5.2698 C   0  0  0  0  0  0  0  0  0  0  0  0
    1.6829    7.3302   -4.7726 C   0  0  0  0  0  0  0  0  0  0  0  0
    4.6648    9.6667   -5.2937 C   0  0  0  0  0  0  0  0  0  0  0  0
    4.4602   10.1751   -6.6496 C   0  0  0  0  0  0  0  0  0  0  0  0
    3.3988   10.5784   -7.1308 O   0  0  0  0  0  0  0  0  0  0  0  0
    5.5592   10.2294   -7.5346 O   0  0  0  0  0  0  0  0  0  0  0  0
    5.6548   10.1946   -4.4750 C   0  0  0  0  0  0  0  0  0  0  0  0
    6.6039   11.5281   -5.0851 Cl  0  0  0  0  0  0  0  0  0  0  0  0
    5.1961   11.6032   -1.1355 N   0  0  0  0  0  0  0  0  0  0  0  0
  1  2  1  0
  2  3  1  0
  3  4  2  0
  4  5  1  0
  5  6  1  0
  6  7  1  0
  7  8  1  0
  8  9  2  0
  8 10  1  0
 10 11  2  0
 11 12  1  0
 12 13  1  0
 13 14  1  0
 11 15  1  0
 15 16  1  0
 16 17  2  0
 16 18  1  0
 15 19  2  0
 19 20  1  0
  5 21  2  0
 21  2  1  0
 19  7  1  0
 14 12  1  0
M  END
$$$$
