protein_ligand_4
     RDKit          3D

 22 23  0  0  0  0  0  0  0  0999 V2000
    8.0830    9.6772   -3.9485 C   0  0  0  0  0  0  0  0  0  0  0  0
    6.9186    8.7962   -4.4136 C   0  0  0  0  0  0  0  0  0  0  0  0
    7.4040    7.3928   -4.5542 C   0  0  0  0  0  0  0  0  0  0  0  0
    6.5062    9.3228   -5.7425 C   0  0  0  0  0  0  0  0  0  0  0  0
    5.7997    8.8491   -3.3482 C   0  0  2  0  0  0  0  0  0  0  0  0
    4.7714    7.9853   -3.9783 N   0  0  0  0  0  0  0  0  0  0  0  0
    4.1516    6.9887   -3.2195 C   0  0  0  0  0  0  0  0  0  0  0  0
    4.5668    6.6237   -2.0843 O   0  0  0  0  0  0  0  0  0  0  0  0
    2.9465    6.3294   -3.7790 C   0  0  0  0  0  0  0  0  0  0  0  0
    1.9795    7.3131   -4.0059 F   0  0  0  0  0  0  0  0  0  0  0  0
    3.2919    5.6606   -4.9138 F   0  0  0  0  0  0  0  0  0  0  0  0
    2.4431    5.4448   -2.8370 F   0  0  0  0  0  0  0  0  0  0  0  0
    5.2080   10.1905   -3.2351 C   0  0  0  0  0  0  0  0  0  0  0  0
    4.6371   10.6296   -4.3041 O   0  0  0  0  0  0  0  0  0  0  0  0
    5.1872   11.0387   -2.1167 N   0  0  0  0  0  0  0  0  0  0  0  0
    5.8480   10.5569   -0.8804 C   0  0  0  0  0  0  0  0  0  0  0  0
    6.1612   11.7413   -0.0107 C   0  0  0  0  0  0  0  0  0  0  0  0
    4.8517   12.3399    0.5131 C   0  0  0  0  0  0  0  0  0  0  0  0
    3.8958   12.4132   -0.6550 C   0  0  0  0  0  0  0  0  0  0  0  0
    4.6453   12.3492   -1.9880 C   0  0  0  0  0  0  0  0  0  0  0  0
    5.8247   13.3234   -1.8136 C   0  0  0  0  0  0  0  0  0  0  0  0
    6.8137   12.8545   -0.8044 C   0  0  0  0  0  0  0  0  0  0  0  0
  1  2  1  0
  2  3  1  0
  2  4  1  0
  2  5  1  0
  5  6  1  6
  6  7  1  0
  7  8  2  0
  7  9  1  0
  9 10  1  0
  9 11  1  0
  9 12  1  0
  5 13  1  0
 13 14  2  0
 13 15  1  0
 15 16  1  0
 16 17  1  0
 17 18  1  0
 18 19  1  0
 19 20  1  0
 20 21  1  0
 21 22  1  0
 20 15  1  0
 22 17  1  0
M  END
$$$$
