protein_ligand_4
     RDKit          3D

 22 23  0  0  0  0  0  0  0  0999 V2000
    2.0021    8.1618   -5.0606 C   0  0  0  0  0  0  0  0  0  0  0  0
    3.4281    8.5618   -5.4540 C   0  0  0  0  0  0  0  0  0  0  0  0
    3.4645   10.0326   -5.6991 C   0  0  0  0  0  0  0  0  0  0  0  0
    3.7295    7.8326   -6.7153 C   0  0  0  0  0  0  0  0  0  0  0  0
    4.3815    8.2107   -4.2888 C   0  0  2  0  0  0  0  0  0  0  0  0
    3.9340    6.8339   -3.9652 N   0  0  0  0  0  0  0  0  0  0  0  0
    4.8859    5.8471   -3.6946 C   0  0  0  0  0  0  0  0  0  0  0  0
    6.1299    6.0391   -3.7942 O   0  0  0  0  0  0  0  0  0  0  0  0
    4.4071    4.5092   -3.2696 C   0  0  0  0  0  0  0  0  0  0  0  0
    3.5494    4.6815   -2.1791 F   0  0  0  0  0  0  0  0  0  0  0  0
    3.7996    3.8985   -4.3243 F   0  0  0  0  0  0  0  0  0  0  0  0
    5.4938    3.7600   -2.8442 F   0  0  0  0  0  0  0  0  0  0  0  0
    4.1189    9.0281   -3.0951 C   0  0  0  0  0  0  0  0  0  0  0  0
    2.9577    8.8609   -2.5610 O   0  0  0  0  0  0  0  0  0  0  0  0
    4.9703    9.9547   -2.4728 N   0  0  0  0  0  0  0  0  0  0  0  0
    6.3087   10.1651   -3.0742 C   0  0  0  0  0  0  0  0  0  0  0  0
    6.8407   11.4911   -2.6094 C   0  0  0  0  0  0  0  0  0  0  0  0
    7.1485   11.4112   -1.1106 C   0  0  0  0  0  0  0  0  0  0  0  0
    5.9760   10.7236   -0.4502 C   0  0  0  0  0  0  0  0  0  0  0  0
    4.7302   10.7802   -1.3376 C   0  0  0  0  0  0  0  0  0  0  0  0
    4.6730   12.2382   -1.8285 C   0  0  0  0  0  0  0  0  0  0  0  0
    5.7985   12.5828   -2.7401 C   0  0  0  0  0  0  0  0  0  0  0  0
  1  2  1  0
  2  3  1  0
  2  4  1  0
  2  5  1  0
  5  6  1  1
  6  7  1  0
  7  8  2  0
  7  9  1  0
  9 10  1  0
  9 11  1  0
  9 12  1  0
  5 13  1  0
 13 14  2  0
 13 15  1  0
 15 16  1  0
 16 17  1  0
 17 18  1  0
 18 19  1  0
 19 20  1  0
 20 21  1  0
 21 22  1  0
 20 15  1  0
 22 17  1  0
M  END
$$$$
