protein_ligand_4
     RDKit          3D

 22 23  0  0  0  0  0  0  0  0999 V2000
    5.6562   10.2637   -5.6172 C   0  0  0  0  0  0  0  0  0  0  0  0
    6.5974    9.5710   -4.6260 C   0  0  0  0  0  0  0  0  0  0  0  0
    7.7634   10.4641   -4.3659 C   0  0  0  0  0  0  0  0  0  0  0  0
    7.0567    8.3235   -5.2938 C   0  0  0  0  0  0  0  0  0  0  0  0
    5.8333    9.3250   -3.3048 C   0  0  2  0  0  0  0  0  0  0  0  0
    4.6681    8.5486   -3.7951 N   0  0  0  0  0  0  0  0  0  0  0  0
    4.3464    7.3328   -3.1858 C   0  0  0  0  0  0  0  0  0  0  0  0
    5.0500    6.8043   -2.2803 O   0  0  0  0  0  0  0  0  0  0  0  0
    3.1164    6.6313   -3.6275 C   0  0  0  0  0  0  0  0  0  0  0  0
    2.0389    7.5095   -3.4790 F   0  0  0  0  0  0  0  0  0  0  0  0
    3.2802    6.2135   -4.9132 F   0  0  0  0  0  0  0  0  0  0  0  0
    2.8989    5.5435   -2.7953 F   0  0  0  0  0  0  0  0  0  0  0  0
    5.2975   10.5708   -2.7366 C   0  0  0  0  0  0  0  0  0  0  0  0
    4.2317   11.0192   -3.3063 O   0  0  0  0  0  0  0  0  0  0  0  0
    5.7983   11.3199   -1.6601 N   0  0  0  0  0  0  0  0  0  0  0  0
    5.0373   12.5249   -1.2525 C   0  0  0  0  0  0  0  0  0  0  0  0
    5.4139   12.8757    0.1590 C   0  0  0  0  0  0  0  0  0  0  0  0
    6.8659   13.3639    0.1849 C   0  0  0  0  0  0  0  0  0  0  0  0
    7.6731   12.4087   -0.6634 C   0  0  0  0  0  0  0  0  0  0  0  0
    6.9410   11.0770   -0.8458 C   0  0  0  0  0  0  0  0  0  0  0  0
    6.4375   10.7182    0.5642 C   0  0  0  0  0  0  0  0  0  0  0  0
    5.3920   11.6563    1.0577 C   0  0  0  0  0  0  0  0  0  0  0  0
  1  2  1  0
  2  3  1  0
  2  4  1  0
  2  5  1  0
  5  6  1  6
  6  7  1  0
  7  8  2  0
  7  9  1  0
  9 10  1  0
  9 11  1  0
  9 12  1  0
  5 13  1  0
 13 14  2  0
 13 15  1  0
 15 16  1  0
 16 17  1  0
 17 18  1  0
 18 19  1  0
 19 20  1  0
 20 21  1  0
 21 22  1  0
 20 15  1  0
 22 17  1  0
M  END
$$$$
