protein_ligand_4
     RDKit          3D

 24 25  0  0  0  0  0  0  0  0999 V2000
    7.4869    8.9068   -4.8225 C   0  0  0  0  0  0  0  0  0  0  0  0
    6.0212    9.3713   -4.8099 C   0  0  0  0  0  0  0  0  0  0  0  0
    5.3900    8.7673   -6.0252 C   0  0  0  0  0  0  0  0  0  0  0  0
    6.0239   10.8760   -4.9597 C   0  0  0  0  0  0  0  0  0  0  0  0
    5.3734    8.9328   -3.5010 C   0  0  1  0  0  0  0  0  0  0  0  0
    5.4204    7.5224   -3.3814 N   0  0  0  0  0  0  0  0  0  0  0  0
    4.2171    6.7275   -3.2968 C   0  0  0  0  0  0  0  0  0  0  0  0
    3.1056    7.2983   -3.4002 O   0  0  0  0  0  0  0  0  0  0  0  0
    4.2626    5.2713   -3.0933 C   0  0  0  0  0  0  0  0  0  0  0  0
    4.5326    4.9621   -1.7532 F   0  0  0  0  0  0  0  0  0  0  0  0
    5.2790    4.7468   -3.8612 F   0  0  0  0  0  0  0  0  0  0  0  0
    3.0917    4.6583   -3.5017 F   0  0  0  0  0  0  0  0  0  0  0  0
    5.7700    9.7565   -2.3635 C   0  0  0  0  0  0  0  0  0  0  0  0
    6.9402    9.4397   -1.9101 O   0  0  0  0  0  0  0  0  0  0  0  0
    5.1185   10.7993   -1.7026 N   0  0  0  0  0  0  0  0  0  0  0  0
    3.7897   11.2790   -1.9747 C   0  0  0  0  0  0  0  0  0  0  0  0
    3.0046   10.9756   -0.6771 C   0  0  0  0  0  0  0  0  0  0  0  0
    3.5981   11.7795    0.3368 O   0  0  0  0  0  0  0  0  0  0  0  0
    4.9525   11.9760    0.4184 C   0  0  0  0  0  0  0  0  0  0  0  0
    5.5550   12.6276    1.4589 C   0  0  0  0  0  0  0  0  0  0  0  0
    6.9474   12.8027    1.4960 C   0  0  0  0  0  0  0  0  0  0  0  0
    7.7234   12.3089    0.4636 C   0  0  0  0  0  0  0  0  0  0  0  0
    7.1138   11.6442   -0.5995 C   0  0  0  0  0  0  0  0  0  0  0  0
    5.7599   11.4924   -0.6005 C   0  0  0  0  0  0  0  0  0  0  0  0
  1  2  1  0
  2  3  1  0
  2  4  1  0
  2  5  1  0
  5  6  1  1
  6  7  1  0
  7  8  2  0
  7  9  1  0
  9 10  1  0
  9 11  1  0
  9 12  1  0
  5 13  1  0
 13 14  2  0
 13 15  1  0
 15 16  1  0
 16 17  1  0
 17 18  1  0
 18 19  1  0
 19 20  2  0
 20 21  1  0
 21 22  2  0
 22 23  1  0
 23 24  2  0
 24 15  1  0
 24 19  1  0
M  END
$$$$
