protein_ligand_4
     RDKit          3D

 24 25  0  0  0  0  0  0  0  0999 V2000
    6.6058   11.0808   -4.3563 C   0  0  0  0  0  0  0  0  0  0  0  0
    5.7055   10.2428   -3.4336 C   0  0  0  0  0  0  0  0  0  0  0  0
    4.4644   11.0532   -3.2267 C   0  0  0  0  0  0  0  0  0  0  0  0
    6.4223   10.1035   -2.1095 C   0  0  0  0  0  0  0  0  0  0  0  0
    5.4510    8.8882   -4.0860 C   0  0  1  0  0  0  0  0  0  0  0  0
    4.8867    7.9918   -3.1459 N   0  0  0  0  0  0  0  0  0  0  0  0
    4.7727    6.5779   -3.4194 C   0  0  0  0  0  0  0  0  0  0  0  0
    5.3036    6.1170   -4.4575 O   0  0  0  0  0  0  0  0  0  0  0  0
    4.0526    5.6688   -2.5145 C   0  0  0  0  0  0  0  0  0  0  0  0
    3.6686    4.4985   -3.1834 F   0  0  0  0  0  0  0  0  0  0  0  0
    2.9093    6.2966   -2.0712 F   0  0  0  0  0  0  0  0  0  0  0  0
    4.8021    5.3583   -1.3941 F   0  0  0  0  0  0  0  0  0  0  0  0
    4.8530    8.9967   -5.4127 C   0  0  0  0  0  0  0  0  0  0  0  0
    3.5699    8.8284   -5.3901 O   0  0  0  0  0  0  0  0  0  0  0  0
    5.4163    9.2460   -6.6655 N   0  0  0  0  0  0  0  0  0  0  0  0
    6.8024    9.5222   -6.9341 C   0  0  0  0  0  0  0  0  0  0  0  0
    7.2643    8.3296   -7.8040 C   0  0  0  0  0  0  0  0  0  0  0  0
    6.5222    8.4178   -9.0155 O   0  0  0  0  0  0  0  0  0  0  0  0
    5.1993    8.7769   -9.0412 C   0  0  0  0  0  0  0  0  0  0  0  0
    4.4321    8.7352  -10.1725 C   0  0  0  0  0  0  0  0  0  0  0  0
    3.0803    9.1133  -10.1462 C   0  0  0  0  0  0  0  0  0  0  0  0
    2.5145    9.5356   -8.9573 C   0  0  0  0  0  0  0  0  0  0  0  0
    3.2927    9.5803   -7.8014 C   0  0  0  0  0  0  0  0  0  0  0  0
    4.6007    9.2046   -7.8652 C   0  0  0  0  0  0  0  0  0  0  0  0
  1  2  1  0
  2  3  1  0
  2  4  1  0
  2  5  1  0
  5  6  1  1
  6  7  1  0
  7  8  2  0
  7  9  1  0
  9 10  1  0
  9 11  1  0
  9 12  1  0
  5 13  1  0
 13 14  2  0
 13 15  1  0
 15 16  1  0
 16 17  1  0
 17 18  1  0
 18 19  1  0
 19 20  2  0
 20 21  1  0
 21 22  2  0
 22 23  1  0
 23 24  2  0
 24 15  1  0
 24 19  1  0
M  END
$$$$
