protein_ligand_4
     RDKit          3D

 24 25  0  0  0  0  0  0  0  0999 V2000
    8.3966   10.3263   -3.8628 C   0  0  0  0  0  0  0  0  0  0  0  0
    7.6518    9.0072   -3.5993 C   0  0  0  0  0  0  0  0  0  0  0  0
    8.3242    8.3872   -2.4145 C   0  0  0  0  0  0  0  0  0  0  0  0
    7.8696    8.1183   -4.8029 C   0  0  0  0  0  0  0  0  0  0  0  0
    6.1736    9.3084   -3.3767 C   0  0  1  0  0  0  0  0  0  0  0  0
    5.4154    8.1145   -3.4512 N   0  0  0  0  0  0  0  0  0  0  0  0
    3.9757    8.1360   -3.5678 C   0  0  0  0  0  0  0  0  0  0  0  0
    3.3906    9.2423   -3.6446 O   0  0  0  0  0  0  0  0  0  0  0  0
    3.1817    6.8980   -3.5985 C   0  0  0  0  0  0  0  0  0  0  0  0
    1.9656    7.1005   -4.2653 F   0  0  0  0  0  0  0  0  0  0  0  0
    2.8965    6.5207   -2.3046 F   0  0  0  0  0  0  0  0  0  0  0  0
    3.8797    5.8538   -4.1781 F   0  0  0  0  0  0  0  0  0  0  0  0
    5.9391   10.2318   -2.2712 C   0  0  0  0  0  0  0  0  0  0  0  0
    5.7732    9.6184   -1.1436 O   0  0  0  0  0  0  0  0  0  0  0  0
    5.8675   11.6252   -2.2271 N   0  0  0  0  0  0  0  0  0  0  0  0
    6.0446   12.5207   -3.3391 C   0  0  0  0  0  0  0  0  0  0  0  0
    4.6686   13.2103   -3.4926 C   0  0  0  0  0  0  0  0  0  0  0  0
    4.4751   13.9676   -2.3029 O   0  0  0  0  0  0  0  0  0  0  0  0
    4.8420   13.4999   -1.0675 C   0  0  0  0  0  0  0  0  0  0  0  0
    4.5422   14.1470    0.0994 C   0  0  0  0  0  0  0  0  0  0  0  0
    4.9406   13.6257    1.3406 C   0  0  0  0  0  0  0  0  0  0  0  0
    5.6483   12.4387    1.3849 C   0  0  0  0  0  0  0  0  0  0  0  0
    5.9567   11.7755    0.1980 C   0  0  0  0  0  0  0  0  0  0  0  0
    5.5524   12.3112   -0.9876 C   0  0  0  0  0  0  0  0  0  0  0  0
  1  2  1  0
  2  3  1  0
  2  4  1  0
  2  5  1  0
  5  6  1  1
  6  7  1  0
  7  8  2  0
  7  9  1  0
  9 10  1  0
  9 11  1  0
  9 12  1  0
  5 13  1  0
 13 14  2  0
 13 15  1  0
 15 16  1  0
 16 17  1  0
 17 18  1  0
 18 19  1  0
 19 20  2  0
 20 21  1  0
 21 22  2  0
 22 23  1  0
 23 24  2  0
 24 15  1  0
 24 19  1  0
M  END
$$$$
