protein_ligand_4
     RDKit          3D

 24 25  0  0  0  0  0  0  0  0999 V2000
    6.0535    8.8428   -6.3540 C   0  0  0  0  0  0  0  0  0  0  0  0
    6.6891    9.3175   -5.0368 C   0  0  0  0  0  0  0  0  0  0  0  0
    7.0547   10.7527   -5.2528 C   0  0  0  0  0  0  0  0  0  0  0  0
    7.9561    8.5176   -4.8337 C   0  0  0  0  0  0  0  0  0  0  0  0
    5.6946    9.1028   -3.9010 C   0  0  1  0  0  0  0  0  0  0  0  0
    5.3893    7.7258   -3.7729 N   0  0  0  0  0  0  0  0  0  0  0  0
    4.0318    7.2621   -3.6031 C   0  0  0  0  0  0  0  0  0  0  0  0
    3.0968    8.0962   -3.6467 O   0  0  0  0  0  0  0  0  0  0  0  0
    3.7197    5.8417   -3.3812 C   0  0  0  0  0  0  0  0  0  0  0  0
    3.6042    5.5633   -2.0124 F   0  0  0  0  0  0  0  0  0  0  0  0
    4.7499    5.0768   -3.8826 F   0  0  0  0  0  0  0  0  0  0  0  0
    2.5707    5.4574   -4.0487 F   0  0  0  0  0  0  0  0  0  0  0  0
    6.0187    9.8735   -2.7049 C   0  0  0  0  0  0  0  0  0  0  0  0
    7.0153    9.3707   -2.0498 O   0  0  0  0  0  0  0  0  0  0  0  0
    5.4516   11.0294   -2.1655 N   0  0  0  0  0  0  0  0  0  0  0  0
    4.3349   11.7591   -2.7043 C   0  0  0  0  0  0  0  0  0  0  0  0
    3.2382   11.6265   -1.6216 C   0  0  0  0  0  0  0  0  0  0  0  0
    3.7364   12.3058   -0.4742 O   0  0  0  0  0  0  0  0  0  0  0  0
    5.0508   12.2325   -0.0911 C   0  0  0  0  0  0  0  0  0  0  0  0
    5.5222   12.7610    1.0788 C   0  0  0  0  0  0  0  0  0  0  0  0
    6.8786   12.6589    1.4259 C   0  0  0  0  0  0  0  0  0  0  0  0
    7.7534   12.0138    0.5712 C   0  0  0  0  0  0  0  0  0  0  0  0
    7.2777   11.4738   -0.6228 C   0  0  0  0  0  0  0  0  0  0  0  0
    5.9546   11.5914   -0.9255 C   0  0  0  0  0  0  0  0  0  0  0  0
  1  2  1  0
  2  3  1  0
  2  4  1  0
  2  5  1  0
  5  6  1  1
  6  7  1  0
  7  8  2  0
  7  9  1  0
  9 10  1  0
  9 11  1  0
  9 12  1  0
  5 13  1  0
 13 14  2  0
 13 15  1  0
 15 16  1  0
 16 17  1  0
 17 18  1  0
 18 19  1  0
 19 20  2  0
 20 21  1  0
 21 22  2  0
 22 23  1  0
 23 24  2  0
 24 15  1  0
 24 19  1  0
M  END
$$$$
