protein_ligand_4
     RDKit          3D

 22 23  0  0  0  0  0  0  0  0999 V2000
    7.4316   10.7143   -4.1126 C   0  0  0  0  0  0  0  0  0  0  0  0
    6.5157    9.5121   -4.3655 C   0  0  0  0  0  0  0  0  0  0  0  0
    7.3600    8.3168   -4.6542 C   0  0  0  0  0  0  0  0  0  0  0  0
    5.7022    9.8561   -5.5626 C   0  0  0  0  0  0  0  0  0  0  0  0
    5.6746    9.2528   -3.0946 C   0  0  2  0  0  0  0  0  0  0  0  0
    4.6922    8.2653   -3.6050 N   0  0  0  0  0  0  0  0  0  0  0  0
    4.4379    7.1048   -2.8692 C   0  0  0  0  0  0  0  0  0  0  0  0
    5.0813    6.7890   -1.8297 O   0  0  0  0  0  0  0  0  0  0  0  0
    3.3579    6.2016   -3.3358 C   0  0  0  0  0  0  0  0  0  0  0  0
    3.6689    5.7878   -4.6344 F   0  0  0  0  0  0  0  0  0  0  0  0
    3.2424    5.1601   -2.4661 F   0  0  0  0  0  0  0  0  0  0  0  0
    2.1699    6.9151   -3.3878 F   0  0  0  0  0  0  0  0  0  0  0  0
    4.9051   10.4387   -2.6901 C   0  0  0  0  0  0  0  0  0  0  0  0
    4.0056   10.8212   -3.5305 O   0  0  0  0  0  0  0  0  0  0  0  0
    5.0281   11.1935   -1.5129 N   0  0  0  0  0  0  0  0  0  0  0  0
    6.1151   10.8254   -0.5747 C   0  0  0  0  0  0  0  0  0  0  0  0
    6.3998   12.0018    0.3153 C   0  0  0  0  0  0  0  0  0  0  0  0
    5.2053   12.2265    1.2481 C   0  0  0  0  0  0  0  0  0  0  0  0
    3.9553   12.1223    0.4054 C   0  0  0  0  0  0  0  0  0  0  0  0
    4.2712   12.3190   -1.0793 C   0  0  0  0  0  0  0  0  0  0  0  0
    5.2014   13.5452   -1.1159 C   0  0  0  0  0  0  0  0  0  0  0  0
    6.5233   13.2835   -0.4828 C   0  0  0  0  0  0  0  0  0  0  0  0
  1  2  1  0
  2  3  1  0
  2  4  1  0
  2  5  1  0
  5  6  1  6
  6  7  1  0
  7  8  2  0
  7  9  1  0
  9 10  1  0
  9 11  1  0
  9 12  1  0
  5 13  1  0
 13 14  2  0
 13 15  1  0
 15 16  1  0
 16 17  1  0
 17 18  1  0
 18 19  1  0
 19 20  1  0
 20 21  1  0
 21 22  1  0
 20 15  1  0
 22 17  1  0
M  END
$$$$
