protein_ligand_4
     RDKit          3D

 22 23  0  0  0  0  0  0  0  0999 V2000
    7.9564   10.8398   -3.1261 C   0  0  0  0  0  0  0  0  0  0  0  0
    6.9928    9.7842   -3.6788 C   0  0  0  0  0  0  0  0  0  0  0  0
    7.7288    8.4962   -3.8346 C   0  0  0  0  0  0  0  0  0  0  0  0
    6.5559   10.2800   -5.0117 C   0  0  0  0  0  0  0  0  0  0  0  0
    5.8333    9.5957   -2.6738 C   0  0  2  0  0  0  0  0  0  0  0  0
    4.9430    8.6893   -3.4395 N   0  0  0  0  0  0  0  0  0  0  0  0
    4.3034    7.6357   -2.7809 C   0  0  0  0  0  0  0  0  0  0  0  0
    4.5796    7.2884   -1.5987 O   0  0  0  0  0  0  0  0  0  0  0  0
    3.2481    6.8908   -3.5100 C   0  0  0  0  0  0  0  0  0  0  0  0
    2.5562    6.1024   -2.5860 F   0  0  0  0  0  0  0  0  0  0  0  0
    2.4399    7.7790   -4.1522 F   0  0  0  0  0  0  0  0  0  0  0  0
    3.8517    6.0436   -4.4272 F   0  0  0  0  0  0  0  0  0  0  0  0
    5.0803   10.8404   -2.4598 C   0  0  0  0  0  0  0  0  0  0  0  0
    4.2766   11.1655   -3.4138 O   0  0  0  0  0  0  0  0  0  0  0  0
    5.1278   11.7049   -1.3548 N   0  0  0  0  0  0  0  0  0  0  0  0
    4.3102   12.9397   -1.4167 C   0  0  0  0  0  0  0  0  0  0  0  0
    4.0943   13.4430   -0.0176 C   0  0  0  0  0  0  0  0  0  0  0  0
    5.4274   13.9441    0.5472 C   0  0  0  0  0  0  0  0  0  0  0  0
    6.4748   12.9108    0.2024 C   0  0  0  0  0  0  0  0  0  0  0  0
    5.8327   11.5607   -0.1259 C   0  0  0  0  0  0  0  0  0  0  0  0
    4.7884   11.3505    0.9855 C   0  0  0  0  0  0  0  0  0  0  0  0
    3.6666   12.3267    0.9129 C   0  0  0  0  0  0  0  0  0  0  0  0
  1  2  1  0
  2  3  1  0
  2  4  1  0
  2  5  1  0
  5  6  1  6
  6  7  1  0
  7  8  2  0
  7  9  1  0
  9 10  1  0
  9 11  1  0
  9 12  1  0
  5 13  1  0
 13 14  2  0
 13 15  1  0
 15 16  1  0
 16 17  1  0
 17 18  1  0
 18 19  1  0
 19 20  1  0
 20 21  1  0
 21 22  1  0
 20 15  1  0
 22 17  1  0
M  END
$$$$
