protein_ligand_4
     RDKit          3D

 24 25  0  0  0  0  0  0  0  0999 V2000
    8.6815    8.7707   -3.0706 C   0  0  0  0  0  0  0  0  0  0  0  0
    7.5929    9.0978   -4.1059 C   0  0  0  0  0  0  0  0  0  0  0  0
    7.7384    8.0757   -5.1895 C   0  0  0  0  0  0  0  0  0  0  0  0
    7.9094   10.4615   -4.6774 C   0  0  0  0  0  0  0  0  0  0  0  0
    6.2318    9.0728   -3.4188 C   0  0  1  0  0  0  0  0  0  0  0  0
    5.7851    7.7372   -3.2687 N   0  0  0  0  0  0  0  0  0  0  0  0
    4.4735    7.3217   -3.7090 C   0  0  0  0  0  0  0  0  0  0  0  0
    3.7788    8.1204   -4.3809 O   0  0  0  0  0  0  0  0  0  0  0  0
    3.9342    5.9907   -3.3903 C   0  0  0  0  0  0  0  0  0  0  0  0
    4.6474    5.4014   -2.3373 F   0  0  0  0  0  0  0  0  0  0  0  0
    4.0677    5.1806   -4.4965 F   0  0  0  0  0  0  0  0  0  0  0  0
    2.5852    6.0413   -3.0883 F   0  0  0  0  0  0  0  0  0  0  0  0
    6.1499    9.9820   -2.2804 C   0  0  0  0  0  0  0  0  0  0  0  0
    6.7262    9.5032   -1.2250 O   0  0  0  0  0  0  0  0  0  0  0  0
    5.5725   11.2455   -2.1433 N   0  0  0  0  0  0  0  0  0  0  0  0
    4.8730   11.9757   -3.1668 C   0  0  0  0  0  0  0  0  0  0  0  0
    3.4271   12.0897   -2.6294 C   0  0  0  0  0  0  0  0  0  0  0  0
    3.5082   12.8868   -1.4528 O   0  0  0  0  0  0  0  0  0  0  0  0
    4.5362   12.7656   -0.5538 C   0  0  0  0  0  0  0  0  0  0  0  0
    4.5641   13.4194    0.6470 C   0  0  0  0  0  0  0  0  0  0  0  0
    5.6407   13.2612    1.5340 C   0  0  0  0  0  0  0  0  0  0  0  0
    6.6911   12.4311    1.1883 C   0  0  0  0  0  0  0  0  0  0  0  0
    6.6675   11.7627   -0.0349 C   0  0  0  0  0  0  0  0  0  0  0  0
    5.6053   11.9401   -0.8693 C   0  0  0  0  0  0  0  0  0  0  0  0
  1  2  1  0
  2  3  1  0
  2  4  1  0
  2  5  1  0
  5  6  1  1
  6  7  1  0
  7  8  2  0
  7  9  1  0
  9 10  1  0
  9 11  1  0
  9 12  1  0
  5 13  1  0
 13 14  2  0
 13 15  1  0
 15 16  1  0
 16 17  1  0
 17 18  1  0
 18 19  1  0
 19 20  2  0
 20 21  1  0
 21 22  2  0
 22 23  1  0
 23 24  2  0
 24 15  1  0
 24 19  1  0
M  END
$$$$
