protein_ligand_0
     RDKit          3D

 18 20  0  0  0  0  0  0  0  0999 V2000
    7.9040    4.3573   -6.0009 C   0  0  0  0  0  0  0  0  0  0  0  0
    6.7037    4.5009   -5.1944 N   0  0  0  0  0  0  0  0  0  0  0  0
    6.0543    3.4897   -4.6000 C   0  0  0  0  0  0  0  0  0  0  0  0
    5.0036    4.0614   -3.9587 N   0  0  0  0  0  0  0  0  0  0  0  0
    5.0118    5.3900   -4.1572 C   0  0  0  0  0  0  0  0  0  0  0  0
    4.0836    6.4306   -3.6684 C   0  0  0  0  0  0  0  0  0  0  0  0
    4.1541    7.6508   -4.4117 N   0  0  0  0  0  0  0  0  0  0  0  0
    3.5461    7.8598   -5.5914 C   0  0  0  0  0  0  0  0  0  0  0  0
    2.7070    6.8855   -6.3264 C   0  0  0  0  0  0  0  0  0  0  0  0
    1.3367    7.1575   -6.1395 O   0  0  0  0  0  0  0  0  0  0  0  0
    3.7963    9.1038   -6.0464 N   0  0  0  0  0  0  0  0  0  0  0  0
    4.5876    9.6861   -5.1153 C   0  0  0  0  0  0  0  0  0  0  0  0
    5.0998   11.0859   -5.2360 C   0  0  0  0  0  0  0  0  0  0  0  0
    4.3281   12.1620   -4.5648 C   0  0  0  0  0  0  0  0  0  0  0  0
    4.3921   12.0739   -6.0539 C   0  0  0  0  0  0  0  0  0  0  0  0
    4.8071    8.7887   -4.1080 C   0  0  0  0  0  0  0  0  0  0  0  0
    5.8522    9.0759   -2.5375 Br  0  0  0  0  0  0  0  0  0  0  0  0
    6.0872    5.6246   -4.9326 N   0  0  0  0  0  0  0  0  0  0  0  0
  1  2  1  0
  2  3  1  0
  3  4  2  0
  4  5  1  0
  5  6  1  0
  6  7  1  0
  7  8  1  0
  8  9  1  0
  9 10  1  0
  8 11  2  0
 11 12  1  0
 12 13  1  0
 13 14  1  0
 14 15  1  0
 12 16  2  0
 16 17  1  0
  5 18  2  0
 18  2  1  0
 16  7  1  0
 15 13  1  0
M  END
$$$$
