protein_ligand_0
     RDKit          3D

 18 20  0  0  0  0  0  0  0  0999 V2000
    9.8386    5.2650   -4.3290 C   0  0  0  0  0  0  0  0  0  0  0  0
    8.5025    5.8029   -4.5213 N   0  0  0  0  0  0  0  0  0  0  0  0
    7.7866    5.6914   -5.6494 C   0  0  0  0  0  0  0  0  0  0  0  0
    6.6140    6.3271   -5.3984 N   0  0  0  0  0  0  0  0  0  0  0  0
    6.6145    6.8148   -4.1466 C   0  0  0  0  0  0  0  0  0  0  0  0
    5.5751    7.5742   -3.4213 C   0  0  0  0  0  0  0  0  0  0  0  0
    4.4711    7.9583   -4.2459 N   0  0  0  0  0  0  0  0  0  0  0  0
    3.3304    7.2587   -4.3652 C   0  0  0  0  0  0  0  0  0  0  0  0
    3.0106    5.9858   -3.6790 C   0  0  0  0  0  0  0  0  0  0  0  0
    3.3683    4.8793   -4.4755 O   0  0  0  0  0  0  0  0  0  0  0  0
    2.4787    7.8704   -5.2124 N   0  0  0  0  0  0  0  0  0  0  0  0
    3.1146    8.9889   -5.6327 C   0  0  0  0  0  0  0  0  0  0  0  0
    2.5101    9.9619   -6.5941 C   0  0  0  0  0  0  0  0  0  0  0  0
    1.5388    9.4367   -7.5864 C   0  0  0  0  0  0  0  0  0  0  0  0
    2.8784    9.9402   -8.0118 C   0  0  0  0  0  0  0  0  0  0  0  0
    4.3430    9.0415   -5.0357 C   0  0  0  0  0  0  0  0  0  0  0  0
    5.6616   10.4015   -5.2663 Br  0  0  0  0  0  0  0  0  0  0  0  0
    7.8094    6.4672   -3.6327 N   0  0  0  0  0  0  0  0  0  0  0  0
  1  2  1  0
  2  3  1  0
  3  4  2  0
  4  5  1  0
  5  6  1  0
  6  7  1  0
  7  8  1  0
  8  9  1  0
  9 10  1  0
  8 11  2  0
 11 12  1  0
 12 13  1  0
 13 14  1  0
 14 15  1  0
 12 16  2  0
 16 17  1  0
  5 18  2  0
 18  2  1  0
 16  7  1  0
 15 13  1  0
M  END
$$$$
