protein_ligand_0
     RDKit          3D

 18 20  0  0  0  0  0  0  0  0999 V2000
    9.4628   10.1306   -0.9999 C   0  0  0  0  0  0  0  0  0  0  0  0
    8.2874    9.9563   -1.8364 N   0  0  0  0  0  0  0  0  0  0  0  0
    7.0784   10.4743   -1.5767 C   0  0  0  0  0  0  0  0  0  0  0  0
    6.2842   10.0710   -2.6007 N   0  0  0  0  0  0  0  0  0  0  0  0
    6.9920    9.3245   -3.4647 C   0  0  0  0  0  0  0  0  0  0  0  0
    6.5721    8.6671   -4.7196 C   0  0  0  0  0  0  0  0  0  0  0  0
    5.1593    8.4616   -4.8094 N   0  0  0  0  0  0  0  0  0  0  0  0
    4.5155    7.3816   -4.3359 C   0  0  0  0  0  0  0  0  0  0  0  0
    5.1364    6.2269   -3.6469 C   0  0  0  0  0  0  0  0  0  0  0  0
    4.2013    5.1892   -3.4586 O   0  0  0  0  0  0  0  0  0  0  0  0
    3.1907    7.4725   -4.5682 N   0  0  0  0  0  0  0  0  0  0  0  0
    3.0075    8.6509   -5.2085 C   0  0  0  0  0  0  0  0  0  0  0  0
    1.6662    9.1417   -5.6517 C   0  0  0  0  0  0  0  0  0  0  0  0
    0.5514    8.1620   -5.6872 C   0  0  0  0  0  0  0  0  0  0  0  0
    1.1115    8.7374   -6.9458 C   0  0  0  0  0  0  0  0  0  0  0  0
    4.2224    9.2594   -5.3564 C   0  0  0  0  0  0  0  0  0  0  0  0
    4.5563   10.9439   -6.1885 Br  0  0  0  0  0  0  0  0  0  0  0  0
    8.2362    9.2764   -2.9528 N   0  0  0  0  0  0  0  0  0  0  0  0
  1  2  1  0
  2  3  1  0
  3  4  2  0
  4  5  1  0
  5  6  1  0
  6  7  1  0
  7  8  1  0
  8  9  1  0
  9 10  1  0
  8 11  2  0
 11 12  1  0
 12 13  1  0
 13 14  1  0
 14 15  1  0
 12 16  2  0
 16 17  1  0
  5 18  2  0
 18  2  1  0
 16  7  1  0
 15 13  1  0
M  END
$$$$
