protein_ligand_0
     RDKit          3D

 18 20  0  0  0  0  0  0  0  0999 V2000
    9.2496    7.9920   -5.1315 C   0  0  0  0  0  0  0  0  0  0  0  0
    8.3343    8.5663   -4.1600 N   0  0  0  0  0  0  0  0  0  0  0  0
    8.6955    9.3655   -3.1459 C   0  0  0  0  0  0  0  0  0  0  0  0
    7.5435    9.6683   -2.4954 N   0  0  0  0  0  0  0  0  0  0  0  0
    6.5039    9.0680   -3.0984 C   0  0  0  0  0  0  0  0  0  0  0  0
    5.0650    9.0953   -2.7639 C   0  0  0  0  0  0  0  0  0  0  0  0
    4.2241    8.6459   -3.8304 N   0  0  0  0  0  0  0  0  0  0  0  0
    3.7768    7.3866   -3.9683 C   0  0  0  0  0  0  0  0  0  0  0  0
    4.0653    6.2528   -3.0602 C   0  0  0  0  0  0  0  0  0  0  0  0
    4.7641    5.2313   -3.7345 O   0  0  0  0  0  0  0  0  0  0  0  0
    3.0068    7.2686   -5.0686 N   0  0  0  0  0  0  0  0  0  0  0  0
    2.9761    8.4988   -5.6322 C   0  0  0  0  0  0  0  0  0  0  0  0
    2.2225    8.8058   -6.8869 C   0  0  0  0  0  0  0  0  0  0  0  0
    0.8480    8.2598   -7.0159 C   0  0  0  0  0  0  0  0  0  0  0  0
    1.9599    7.7589   -7.8773 C   0  0  0  0  0  0  0  0  0  0  0  0
    3.7272    9.3468   -4.8674 C   0  0  0  0  0  0  0  0  0  0  0  0
    4.0323   11.2022   -5.1928 Br  0  0  0  0  0  0  0  0  0  0  0  0
    7.0383    8.3904   -4.1318 N   0  0  0  0  0  0  0  0  0  0  0  0
  1  2  1  0
  2  3  1  0
  3  4  2  0
  4  5  1  0
  5  6  1  0
  6  7  1  0
  7  8  1  0
  8  9  1  0
  9 10  1  0
  8 11  2  0
 11 12  1  0
 12 13  1  0
 13 14  1  0
 14 15  1  0
 12 16  2  0
 16 17  1  0
  5 18  2  0
 18  2  1  0
 16  7  1  0
 15 13  1  0
M  END
$$$$
