protein_ligand_0
     RDKit          3D

 18 20  0  0  0  0  0  0  0  0999 V2000
    5.3034    5.1349   -8.9287 C   0  0  0  0  0  0  0  0  0  0  0  0
    5.9265    5.0282   -7.6203 N   0  0  0  0  0  0  0  0  0  0  0  0
    6.7680    4.0524   -7.2495 C   0  0  0  0  0  0  0  0  0  0  0  0
    7.1069    4.3349   -5.9661 N   0  0  0  0  0  0  0  0  0  0  0  0
    6.4869    5.4566   -5.5633 C   0  0  0  0  0  0  0  0  0  0  0  0
    6.5385    6.1577   -4.2637 C   0  0  0  0  0  0  0  0  0  0  0  0
    5.8377    7.4047   -4.2615 N   0  0  0  0  0  0  0  0  0  0  0  0
    4.5374    7.5468   -3.9549 C   0  0  0  0  0  0  0  0  0  0  0  0
    3.6070    6.4607   -3.5700 C   0  0  0  0  0  0  0  0  0  0  0  0
    2.2662    6.8778   -3.6919 O   0  0  0  0  0  0  0  0  0  0  0  0
    4.1624    8.8388   -4.0409 N   0  0  0  0  0  0  0  0  0  0  0  0
    5.2701    9.5214   -4.4140 C   0  0  0  0  0  0  0  0  0  0  0  0
    5.2872   11.0018   -4.6247 C   0  0  0  0  0  0  0  0  0  0  0  0
    4.0083   11.7365   -4.4548 C   0  0  0  0  0  0  0  0  0  0  0  0
    4.6447   11.5982   -5.7983 C   0  0  0  0  0  0  0  0  0  0  0  0
    6.3021    8.6355   -4.5496 C   0  0  0  0  0  0  0  0  0  0  0  0
    8.0948    9.0478   -5.0571 Br  0  0  0  0  0  0  0  0  0  0  0  0
    5.7604    5.8585   -6.6232 N   0  0  0  0  0  0  0  0  0  0  0  0
  1  2  1  0
  2  3  1  0
  3  4  2  0
  4  5  1  0
  5  6  1  0
  6  7  1  0
  7  8  1  0
  8  9  1  0
  9 10  1  0
  8 11  2  0
 11 12  1  0
 12 13  1  0
 13 14  1  0
 14 15  1  0
 12 16  2  0
 16 17  1  0
  5 18  2  0
 18  2  1  0
 16  7  1  0
 15 13  1  0
M  END
$$$$
