protein_ligand_0
     RDKit          3D

 18 20  0  0  0  0  0  0  0  0999 V2000
    3.9335    8.5890   -6.2039 C   0  0  0  0  0  0  0  0  0  0  0  0
    4.1089    8.7159   -4.7670 N   0  0  0  0  0  0  0  0  0  0  0  0
    3.1771    8.4140   -3.8515 C   0  0  0  0  0  0  0  0  0  0  0  0
    3.7512    8.6769   -2.6502 N   0  0  0  0  0  0  0  0  0  0  0  0
    5.0037    9.1285   -2.8285 C   0  0  0  0  0  0  0  0  0  0  0  0
    6.0159    9.5430   -1.8350 C   0  0  0  0  0  0  0  0  0  0  0  0
    6.0130   10.9491   -1.5721 N   0  0  0  0  0  0  0  0  0  0  0  0
    6.8120   11.8395   -2.1835 C   0  0  0  0  0  0  0  0  0  0  0  0
    7.8235   11.5367   -3.2222 C   0  0  0  0  0  0  0  0  0  0  0  0
    8.9771   10.9627   -2.6510 O   0  0  0  0  0  0  0  0  0  0  0  0
    6.5791   13.0863   -1.7267 N   0  0  0  0  0  0  0  0  0  0  0  0
    5.6010   12.9637   -0.7992 C   0  0  0  0  0  0  0  0  0  0  0  0
    5.0416   14.1249   -0.0410 C   0  0  0  0  0  0  0  0  0  0  0  0
    3.7954   14.7470   -0.5546 C   0  0  0  0  0  0  0  0  0  0  0  0
    5.0961   15.4787   -0.5980 C   0  0  0  0  0  0  0  0  0  0  0  0
    5.2531   11.6452   -0.7052 C   0  0  0  0  0  0  0  0  0  0  0  0
    3.9264   10.8988    0.4455 Br  0  0  0  0  0  0  0  0  0  0  0  0
    5.1891    9.1385   -4.1619 N   0  0  0  0  0  0  0  0  0  0  0  0
  1  2  1  0
  2  3  1  0
  3  4  2  0
  4  5  1  0
  5  6  1  0
  6  7  1  0
  7  8  1  0
  8  9  1  0
  9 10  1  0
  8 11  2  0
 11 12  1  0
 12 13  1  0
 13 14  1  0
 14 15  1  0
 12 16  2  0
 16 17  1  0
  5 18  2  0
 18  2  1  0
 16  7  1  0
 15 13  1  0
M  END
$$$$
