protein_ligand_3
     RDKit          3D

 21 23  0  0  0  0  0  0  0  0999 V2000
    4.2101   13.3041   -0.1355 C   0  0  0  0  0  0  0  0  0  0  0  0
    5.2931   12.4322   -0.5276 N   0  0  0  0  0  0  0  0  0  0  0  0
    6.4208   12.1507    0.1207 C   0  0  0  0  0  0  0  0  0  0  0  0
    7.1497   11.2802   -0.6219 N   0  0  0  0  0  0  0  0  0  0  0  0
    6.4531   11.0263   -1.7442 C   0  0  0  0  0  0  0  0  0  0  0  0
    6.8934   10.1229   -2.8299 C   0  0  0  0  0  0  0  0  0  0  0  0
    5.8057    9.8167   -3.7533 N   0  0  0  0  0  0  0  0  0  0  0  0
    5.4825   10.6834   -4.7278 C   0  0  0  0  0  0  0  0  0  0  0  0
    6.1712   11.7527   -4.7817 O   0  0  0  0  0  0  0  0  0  0  0  0
    4.4969   10.4188   -5.5751 N   0  0  0  0  0  0  0  0  0  0  0  0
    3.7575    9.2691   -5.5159 C   0  0  0  0  0  0  0  0  0  0  0  0
    2.7359    9.0792   -6.5492 C   0  0  0  0  0  0  0  0  0  0  0  0
    2.2716   10.4119   -7.1871 C   0  0  0  0  0  0  0  0  0  0  0  0
    2.9710    9.3573   -7.9860 C   0  0  0  0  0  0  0  0  0  0  0  0
    4.0582    8.3627   -4.5330 C   0  0  0  0  0  0  0  0  0  0  0  0
    3.2885    7.1321   -4.3545 C   0  0  0  0  0  0  0  0  0  0  0  0
    3.5837    6.0125   -4.7790 O   0  0  0  0  0  0  0  0  0  0  0  0
    2.0775    7.1799   -3.6298 O   0  0  0  0  0  0  0  0  0  0  0  0
    5.0988    8.6852   -3.6715 C   0  0  0  0  0  0  0  0  0  0  0  0
    5.5065    7.5478   -2.4100 Cl  0  0  0  0  0  0  0  0  0  0  0  0
    5.3324   11.7405   -1.6557 N   0  0  0  0  0  0  0  0  0  0  0  0
  1  2  1  0
  2  3  1  0
  3  4  2  0
  4  5  1  0
  5  6  1  0
  6  7  1  0
  7  8  1  0
  8  9  2  0
  8 10  1  0
 10 11  2  0
 11 12  1  0
 12 13  1  0
 13 14  1  0
 11 15  1  0
 15 16  1  0
 16 17  2  0
 16 18  1  0
 15 19  2  0
 19 20  1  0
  5 21  2  0
 21  2  1  0
 19  7  1  0
 14 12  1  0
M  END
$$$$
