protein_ligand_2
     RDKit          3D

 17 19  0  0  0  0  0  0  0  0999 V2000
    5.0431   13.4679   -2.6898 C   0  0  0  0  0  0  0  0  0  0  0  0
    6.3943   12.9230   -2.2532 C   0  0  0  0  0  0  0  0  0  0  0  0
    6.1261   11.7898   -1.2994 C   0  0  2  0  0  0  0  0  0  0  0  0
    7.4543   11.1716   -0.8593 C   0  0  0  0  0  0  0  0  0  0  0  0
    5.2919   10.7269   -1.8581 C   0  0  0  0  0  0  0  0  0  0  0  0
    4.0354   10.4626   -1.4497 N   0  0  0  0  0  0  0  0  0  0  0  0
    3.3670    9.4574   -2.0411 C   0  0  0  0  0  0  0  0  0  0  0  0
    1.7143    9.0578   -1.5525 Cl  0  0  0  0  0  0  0  0  0  0  0  0
    3.9279    8.6893   -3.0522 C   0  0  0  0  0  0  0  0  0  0  0  0
    3.5295    7.6572   -3.8097 N   0  0  0  0  0  0  0  0  0  0  0  0
    4.4933    7.2918   -4.6543 C   0  0  0  0  0  0  0  0  0  0  0  0
    4.4890    6.2024   -5.6711 C   0  0  0  0  0  0  0  0  0  0  0  0
    5.7635    6.0287   -6.4101 C   0  0  0  0  0  0  0  0  0  0  0  0
    5.3772    5.0176   -5.3906 C   0  0  0  0  0  0  0  0  0  0  0  0
    5.5481    8.1323   -4.4187 C   0  0  0  0  0  0  0  0  0  0  0  0
    5.1935    8.9844   -3.4366 N   0  0  0  0  0  0  0  0  0  0  0  0
    5.8103    9.9654   -2.8409 N   0  0  0  0  0  0  0  0  0  0  0  0
  1  2  1  0
  2  3  1  0
  3  4  1  6
  3  5  1  0
  5  6  1  0
  6  7  2  0
  7  8  1  0
  7  9  1  0
  9 10  2  0
 10 11  1  0
 11 12  1  0
 12 13  1  0
 13 14  1  0
 11 15  2  0
 15 16  1  0
 16 17  1  0
 17  5  2  0
 16  9  1  0
 14 12  1  0
M  END
$$$$
