protein_ligand_2
     RDKit          3D

 17 19  0  0  0  0  0  0  0  0999 V2000
    6.4102   12.9973    0.3259 C   0  0  0  0  0  0  0  0  0  0  0  0
    7.6833   12.3607   -0.2101 C   0  0  0  0  0  0  0  0  0  0  0  0
    7.3981   10.8949   -0.3992 C   0  0  2  0  0  0  0  0  0  0  0  0
    8.6607   10.1930   -0.9024 C   0  0  0  0  0  0  0  0  0  0  0  0
    6.3156   10.6163   -1.3418 C   0  0  0  0  0  0  0  0  0  0  0  0
    5.1878    9.9537   -1.0186 N   0  0  0  0  0  0  0  0  0  0  0  0
    4.2626    9.7584   -1.9742 C   0  0  0  0  0  0  0  0  0  0  0  0
    2.7597    8.8964   -1.6168 Cl  0  0  0  0  0  0  0  0  0  0  0  0
    4.4329   10.2153   -3.2738 C   0  0  0  0  0  0  0  0  0  0  0  0
    3.7187   10.1777   -4.4079 N   0  0  0  0  0  0  0  0  0  0  0  0
    4.3701   10.7892   -5.3966 C   0  0  0  0  0  0  0  0  0  0  0  0
    3.9570   10.9849   -6.8149 C   0  0  0  0  0  0  0  0  0  0  0  0
    3.3638    9.7913   -7.4662 C   0  0  0  0  0  0  0  0  0  0  0  0
    2.4778   10.9274   -7.0983 C   0  0  0  0  0  0  0  0  0  0  0  0
    5.5496   11.2329   -4.8612 C   0  0  0  0  0  0  0  0  0  0  0  0
    5.5798   10.8774   -3.5616 N   0  0  0  0  0  0  0  0  0  0  0  0
    6.4536   11.0479   -2.6102 N   0  0  0  0  0  0  0  0  0  0  0  0
  1  2  1  0
  2  3  1  0
  3  4  1  6
  3  5  1  0
  5  6  1  0
  6  7  2  0
  7  8  1  0
  7  9  1  0
  9 10  2  0
 10 11  1  0
 11 12  1  0
 12 13  1  0
 13 14  1  0
 11 15  2  0
 15 16  1  0
 16 17  1  0
 17  5  2  0
 16  9  1  0
 14 12  1  0
M  END
$$$$
