protein_ligand_2
     RDKit          3D

 17 19  0  0  0  0  0  0  0  0999 V2000
    4.9232   13.7165   -2.9420 C   0  0  0  0  0  0  0  0  0  0  0  0
    6.2428   12.9610   -2.9752 C   0  0  0  0  0  0  0  0  0  0  0  0
    6.0472   11.6959   -2.1834 C   0  0  2  0  0  0  0  0  0  0  0  0
    7.3510   10.8959   -2.1747 C   0  0  0  0  0  0  0  0  0  0  0  0
    4.9856   10.8312   -2.6965 C   0  0  0  0  0  0  0  0  0  0  0  0
    3.9562   10.3807   -1.9530 N   0  0  0  0  0  0  0  0  0  0  0  0
    3.0401    9.5900   -2.5384 C   0  0  0  0  0  0  0  0  0  0  0  0
    1.6641    8.9643   -1.6194 Cl  0  0  0  0  0  0  0  0  0  0  0  0
    3.1220    9.2265   -3.8755 C   0  0  0  0  0  0  0  0  0  0  0  0
    2.3916    8.4794   -4.7157 N   0  0  0  0  0  0  0  0  0  0  0  0
    2.9390    8.4629   -5.9305 C   0  0  0  0  0  0  0  0  0  0  0  0
    2.4716    7.7678   -7.1630 C   0  0  0  0  0  0  0  0  0  0  0  0
    1.7706    6.4813   -6.9303 C   0  0  0  0  0  0  0  0  0  0  0  0
    0.9800    7.6674   -7.3535 C   0  0  0  0  0  0  0  0  0  0  0  0
    4.0668    9.2354   -5.8529 C   0  0  0  0  0  0  0  0  0  0  0  0
    4.1712    9.6987   -4.5917 N   0  0  0  0  0  0  0  0  0  0  0  0
    5.0393   10.4624   -3.9909 N   0  0  0  0  0  0  0  0  0  0  0  0
  1  2  1  0
  2  3  1  0
  3  4  1  6
  3  5  1  0
  5  6  1  0
  6  7  2  0
  7  8  1  0
  7  9  1  0
  9 10  2  0
 10 11  1  0
 11 12  1  0
 12 13  1  0
 13 14  1  0
 11 15  2  0
 15 16  1  0
 16 17  1  0
 17  5  2  0
 16  9  1  0
 14 12  1  0
M  END
$$$$
