protein_ligand_2
     RDKit          3D

 22 23  0  0  0  0  0  0  0  0999 V2000
    5.1052   11.7807    0.7234 C   0  0  0  0  0  0  0  0  0  0  0  0
    5.4528   11.1834   -0.6239 C   0  0  0  0  0  0  0  0  0  0  0  0
    5.3475   12.2313   -1.7253 C   0  0  0  0  0  0  0  0  0  0  0  0
    4.5574   10.0361   -0.8701 C   0  0  0  0  0  0  0  0  0  0  0  0
    3.5529    9.8141   -0.1402 O   0  0  0  0  0  0  0  0  0  0  0  0
    4.7582    9.1302   -1.9139 O   0  0  0  0  0  0  0  0  0  0  0  0
    3.7963    8.1238   -2.2321 C   0  0  0  0  0  0  0  0  0  0  0  0
    3.9944    7.8159   -3.7178 C   0  0  2  0  0  0  0  0  0  0  0  0
    3.9062    9.0347   -4.3863 O   0  0  0  0  0  0  0  0  0  0  0  0
    3.0119    6.7988   -4.2042 C   0  0  0  0  0  0  0  0  0  0  0  0
    3.2972    6.3555   -5.5595 N   0  0  0  0  0  0  0  0  0  0  0  0
    2.5573    6.6985   -6.6113 C   0  0  0  0  0  0  0  0  0  0  0  0
    3.1227    6.0964   -7.7328 C   0  0  0  0  0  0  0  0  0  0  0  0
    4.2123    5.3936   -7.3028 C   0  0  0  0  0  0  0  0  0  0  0  0
    5.1376    4.5916   -8.1001 C   0  0  0  0  0  0  0  0  0  0  0  0
    6.5151    4.7183   -7.8931 C   0  0  0  0  0  0  0  0  0  0  0  0
    7.4308    3.9894   -8.6138 C   0  0  0  0  0  0  0  0  0  0  0  0
    7.0143    3.1024   -9.5721 C   0  0  0  0  0  0  0  0  0  0  0  0
    5.6606    2.9697   -9.7840 C   0  0  0  0  0  0  0  0  0  0  0  0
    4.7301    3.7113   -9.0507 C   0  0  0  0  0  0  0  0  0  0  0  0
    3.4141    3.5261   -9.3161 F   0  0  0  0  0  0  0  0  0  0  0  0
    4.2794    5.5818   -5.9651 N   0  0  0  0  0  0  0  0  0  0  0  0
  1  2  1  0
  2  3  1  0
  2  4  1  0
  4  5  2  0
  4  6  1  0
  6  7  1  0
  7  8  1  0
  8  9  1  6
  8 10  1  0
 10 11  1  0
 11 12  1  0
 12 13  2  0
 13 14  1  0
 14 15  1  0
 15 16  2  0
 16 17  1  0
 17 18  2  0
 18 19  1  0
 19 20  2  0
 20 21  1  0
 14 22  2  0
 22 11  1  0
 20 15  1  0
M  END
$$$$
