protein_ligand_2
     RDKit          3D

 22 23  0  0  0  0  0  0  0  0999 V2000
    6.9716    4.0668   -5.3893 C   0  0  0  0  0  0  0  0  0  0  0  0
    5.6500    3.3311   -5.3210 C   0  0  0  0  0  0  0  0  0  0  0  0
    5.4973    2.3793   -6.5013 C   0  0  0  0  0  0  0  0  0  0  0  0
    4.5630    4.3285   -5.2757 C   0  0  0  0  0  0  0  0  0  0  0  0
    3.7867    4.5038   -6.2543 O   0  0  0  0  0  0  0  0  0  0  0  0
    4.3227    5.1356   -4.1616 O   0  0  0  0  0  0  0  0  0  0  0  0
    3.3650    6.1944   -4.1920 C   0  0  0  0  0  0  0  0  0  0  0  0
    4.1235    7.4522   -3.7631 C   0  0  2  0  0  0  0  0  0  0  0  0
    4.6594    7.1780   -2.5071 O   0  0  0  0  0  0  0  0  0  0  0  0
    3.2413    8.6596   -3.7822 C   0  0  0  0  0  0  0  0  0  0  0  0
    3.9520    9.8720   -3.4086 N   0  0  0  0  0  0  0  0  0  0  0  0
    4.6724   10.5903   -4.2668 C   0  0  0  0  0  0  0  0  0  0  0  0
    5.2026   11.6699   -3.5643 C   0  0  0  0  0  0  0  0  0  0  0  0
    4.7698   11.5586   -2.2735 C   0  0  0  0  0  0  0  0  0  0  0  0
    5.0548   12.4473   -1.1492 C   0  0  0  0  0  0  0  0  0  0  0  0
    4.9219   13.8301   -1.3122 C   0  0  0  0  0  0  0  0  0  0  0  0
    5.1766   14.7126   -0.2897 C   0  0  0  0  0  0  0  0  0  0  0  0
    5.5748   14.2561    0.9399 C   0  0  0  0  0  0  0  0  0  0  0  0
    5.7088   12.8968    1.1114 C   0  0  0  0  0  0  0  0  0  0  0  0
    5.4496   12.0002    0.0710 C   0  0  0  0  0  0  0  0  0  0  0  0
    5.6035   10.6761    0.3159 F   0  0  0  0  0  0  0  0  0  0  0  0
    4.0071   10.4426   -2.2257 N   0  0  0  0  0  0  0  0  0  0  0  0
  1  2  1  0
  2  3  1  0
  2  4  1  0
  4  5  2  0
  4  6  1  0
  6  7  1  0
  7  8  1  0
  8  9  1  1
  8 10  1  0
 10 11  1  0
 11 12  1  0
 12 13  2  0
 13 14  1  0
 14 15  1  0
 15 16  2  0
 16 17  1  0
 17 18  2  0
 18 19  1  0
 19 20  2  0
 20 21  1  0
 14 22  2  0
 22 11  1  0
 20 15  1  0
M  END
$$$$
