protein_ligand_2
     RDKit          3D

 22 23  0  0  0  0  0  0  0  0999 V2000
    5.3166   10.5563   -0.2237 C   0  0  0  0  0  0  0  0  0  0  0  0
    4.9360   11.3182   -1.4757 C   0  0  0  0  0  0  0  0  0  0  0  0
    4.1929   12.6016   -1.1249 C   0  0  0  0  0  0  0  0  0  0  0  0
    4.1256   10.4311   -2.3329 C   0  0  0  0  0  0  0  0  0  0  0  0
    3.1995   10.8823   -3.0608 O   0  0  0  0  0  0  0  0  0  0  0  0
    4.3258    9.0504   -2.3961 O   0  0  0  0  0  0  0  0  0  0  0  0
    3.5800    8.2221   -3.2888 C   0  0  0  0  0  0  0  0  0  0  0  0
    4.5350    7.1042   -3.7127 C   0  0  2  0  0  0  0  0  0  0  0  0
    5.8212    7.5604   -3.4345 O   0  0  0  0  0  0  0  0  0  0  0  0
    4.3358    6.7248   -5.1454 C   0  0  0  0  0  0  0  0  0  0  0  0
    5.4040    5.8758   -5.6483 N   0  0  0  0  0  0  0  0  0  0  0  0
    5.3000    4.5526   -5.7476 C   0  0  0  0  0  0  0  0  0  0  0  0
    6.5035    4.0776   -6.2634 C   0  0  0  0  0  0  0  0  0  0  0  0
    7.3099    5.1624   -6.4609 C   0  0  0  0  0  0  0  0  0  0  0  0
    8.6733    5.1862   -6.9859 C   0  0  0  0  0  0  0  0  0  0  0  0
    8.9161    4.7560   -8.2945 C   0  0  0  0  0  0  0  0  0  0  0  0
   10.1777    4.7567   -8.8400 C   0  0  0  0  0  0  0  0  0  0  0  0
   11.2525    5.1860   -8.1057 C   0  0  0  0  0  0  0  0  0  0  0  0
   11.0249    5.6116   -6.8165 C   0  0  0  0  0  0  0  0  0  0  0  0
    9.7416    5.6106   -6.2626 C   0  0  0  0  0  0  0  0  0  0  0  0
    9.5964    6.0442   -4.9869 F   0  0  0  0  0  0  0  0  0  0  0  0
    6.5940    6.2414   -6.0701 N   0  0  0  0  0  0  0  0  0  0  0  0
  1  2  1  0
  2  3  1  0
  2  4  1  0
  4  5  2  0
  4  6  1  0
  6  7  1  0
  7  8  1  0
  8  9  1  6
  8 10  1  0
 10 11  1  0
 11 12  1  0
 12 13  2  0
 13 14  1  0
 14 15  1  0
 15 16  2  0
 16 17  1  0
 17 18  2  0
 18 19  1  0
 19 20  2  0
 20 21  1  0
 14 22  2  0
 22 11  1  0
 20 15  1  0
M  END
$$$$
