protein_ligand_2
     RDKit          3D

 22 23  0  0  0  0  0  0  0  0999 V2000
    4.4317    1.5520   -4.0084 C   0  0  0  0  0  0  0  0  0  0  0  0
    4.9410    2.7118   -4.8378 C   0  0  0  0  0  0  0  0  0  0  0  0
    6.3713    3.0685   -4.4511 C   0  0  0  0  0  0  0  0  0  0  0  0
    4.0225    3.8530   -4.6570 C   0  0  0  0  0  0  0  0  0  0  0  0
    2.7716    3.6944   -4.6213 O   0  0  0  0  0  0  0  0  0  0  0  0
    4.4692    5.1686   -4.5151 O   0  0  0  0  0  0  0  0  0  0  0  0
    3.5652    6.2489   -4.2803 C   0  0  0  0  0  0  0  0  0  0  0  0
    4.4002    7.3547   -3.6313 C   0  0  2  0  0  0  0  0  0  0  0  0
    4.4380    7.0694   -2.2686 O   0  0  0  0  0  0  0  0  0  0  0  0
    3.8511    8.7111   -3.9397 C   0  0  0  0  0  0  0  0  0  0  0  0
    4.6286    9.7768   -3.3277 N   0  0  0  0  0  0  0  0  0  0  0  0
    5.7480   10.2621   -3.8595 C   0  0  0  0  0  0  0  0  0  0  0  0
    6.2147   11.2611   -3.0083 C   0  0  0  0  0  0  0  0  0  0  0  0
    5.3346   11.3424   -1.9668 C   0  0  0  0  0  0  0  0  0  0  0  0
    5.3854   12.2386   -0.8139 C   0  0  0  0  0  0  0  0  0  0  0  0
    5.7823   13.5681   -0.9907 C   0  0  0  0  0  0  0  0  0  0  0  0
    5.8484   14.4548    0.0574 C   0  0  0  0  0  0  0  0  0  0  0  0
    5.5221   14.0558    1.3275 C   0  0  0  0  0  0  0  0  0  0  0  0
    5.1301   12.7493    1.5129 C   0  0  0  0  0  0  0  0  0  0  0  0
    5.0631   11.8483    0.4465 C   0  0  0  0  0  0  0  0  0  0  0  0
    4.6683   10.5783    0.7073 F   0  0  0  0  0  0  0  0  0  0  0  0
    4.3799   10.4145   -2.2056 N   0  0  0  0  0  0  0  0  0  0  0  0
  1  2  1  0
  2  3  1  0
  2  4  1  0
  4  5  2  0
  4  6  1  0
  6  7  1  0
  7  8  1  0
  8  9  1  1
  8 10  1  0
 10 11  1  0
 11 12  1  0
 12 13  2  0
 13 14  1  0
 14 15  1  0
 15 16  2  0
 16 17  1  0
 17 18  2  0
 18 19  1  0
 19 20  2  0
 20 21  1  0
 14 22  2  0
 22 11  1  0
 20 15  1  0
M  END
$$$$
